gem5 Simulator System.  http://gem5.org
gem5 is copyrighted software; use the --copyright option for details.

gem5 compiled Apr 11 2015 13:16:45
gem5 started Apr 11 2015 13:40:37
gem5 executing on bigbird
command line: ./build/ARM/gem5.opt --debug-flags=PseudoInst configs/example/haswell.py --machine-type=VExpress_EMM --dtb-filename=vexpress-v2p-ca15-tc1-gem5_dvfs_per_core_4cpus.dtb --kernel=vmlinux.ondemand95.e1000 --mem-size=2048MB --link-delay=25us --switch-link-delay=15us --link-delay-var=0ns --link-speed=230Mbps --tcp-speed=160Mbps --udp-speed=160Mbps --no-ip-speed=160Mbps --link-rate-scale=2 --link-delay-opt=47us --link-delay-queue=47us --link-retry-time=75us --nic-queue-th=50ms --sys-clock=2GHz --cpu-clock=1GHz --num-cpus=4 --tcp-retry-speed=1Gbps --tcp-process-speed=180Mbps --udp-retry-speed=160Mbps --no-ip-retry-speed=160Mbps --tcp-jmp-delay0=55us --tcp-jmp-delay1=130us --tcp-jmp-size0=131 --tcp-jmp-size1=323 --tap-first-delay=1s --checkpoint-restore=1 --eth --cpu-type=arm_detailed --caches --checkpoint-dir=/research/ljindal/alian/gem5/ckptdir/WORKING_PING_NPB_CKPT_5NODES/tux0 --sync-host=128.104.189.79 --mac=00:90:00:00:00:00 --tap-port=3500 --script=tux0.sh --disk-image=/research/ljindal/alian/gem5/disks/NPB/tux0.img
Global frequency set at 1000000000000 ticks per second
warn: DRAM device capacity (8192 Mbytes) does not match the address range assigned (2048 Mbytes)
info: kernel located at: /users/ljindal/pd-gem5/binaries/vmlinux.ondemand95.e1000
      0: system.cpu0.isa: ISA system set to: 0x5a6f680 0x5a6f680
      0: system.cpu1.isa: ISA system set to: 0x5a6f680 0x5a6f680
      0: system.cpu2.isa: ISA system set to: 0x5a6f680 0x5a6f680
      0: system.cpu3.isa: ISA system set to: 0x5a6f680 0x5a6f680
lo= 127.0.0.1
eth0= 128.104.181.93
tapport= 3500
Listening for tap connection on port 3500
Listening for system connection on port 5900
Listening for system connection on port 3456
      0: system.switch_cpus0.isa: ISA system set to: 0x5a6f680 0x5a6f680
      0: system.switch_cpus1.isa: ISA system set to: 0x5a6f680 0x5a6f680
      0: system.switch_cpus2.isa: ISA system set to: 0x5a6f680 0x5a6f680
      0: system.switch_cpus3.isa: ISA system set to: 0x5a6f680 0x5a6f680
0: system.remote_gdb.listener: listening for remote gdb #0 on port 7000
0: system.remote_gdb.listener: listening for remote gdb #1 on port 7002
0: system.remote_gdb.listener: listening for remote gdb #2 on port 7003
0: system.remote_gdb.listener: listening for remote gdb #3 on port 7004
Switch at curTick count:10000
Switched CPUS @ tick 3966960010000
switching cpus
**** REAL SIMULATION ****
warn: 	instruction 'mcr dcisw' unimplemented
warn: 	instruction 'mcr icialluis' unimplemented
3966980983656: global: PseudoInst::quiesceSkip()
3966981616413: global: PseudoInst::quiesceSkip()
3966997138501: global: PseudoInst::quiesceSkip()
3966997147222: global: PseudoInst::quiesce()
3966998981216: global: PseudoInst::quiesceSkip()
3967000584265: global: PseudoInst::quiesceSkip()
3967000592986: global: PseudoInst::quiesce()
3967000640790: global: PseudoInst::quiesceSkip()
3967000653064: global: PseudoInst::quiesceSkip()
3967000659524: global: PseudoInst::quiesce()
3967000829422: global: PseudoInst::quiesceSkip()
3967000835882: global: PseudoInst::quiesce()
3967001095251: global: PseudoInst::quiesce()
3967001163081: global: PseudoInst::quiesceSkip()
3967001169541: global: PseudoInst::quiesce()
3967001427618: global: PseudoInst::quiesceSkip()
3967001434078: global: PseudoInst::quiesce()
3967001498355: global: PseudoInst::quiesceSkip()
3967001504815: global: PseudoInst::quiesce()
3967005304587: global: PseudoInst::quiesce()
3967006558150: global: PseudoInst::quiesceSkip()
3967027434286: global: PseudoInst::quiesceSkip()
3967074451135: global: PseudoInst::quiesce()
warn: 	instruction 'mcr dccimvac' unimplemented
3967111669133: global: PseudoInst::quiesceSkip()
3967112105183: global: PseudoInst::quiesceSkip()
warn: 	instruction 'mcr bpiall' unimplemented
3967151296065: global: PseudoInst::quiesce()
3967277925308: global: PseudoInst::quiesceSkip()
3967277934029: global: PseudoInst::quiesce()
3967278147532: global: PseudoInst::quiesceSkip()
3967278156253: global: PseudoInst::quiesce()
3967278171434: global: PseudoInst::quiesceSkip()
3967278177894: global: PseudoInst::quiesce()
3967278540623: global: PseudoInst::quiesceSkip()
3967278547083: global: PseudoInst::quiesce()
3967278893985: global: PseudoInst::quiesceSkip()
3967278906259: global: PseudoInst::quiesceSkip()
3967278912719: global: PseudoInst::quiesce()
3967279114271: global: PseudoInst::quiesceSkip()
3967279120731: global: PseudoInst::quiesce()
3967279789018: global: PseudoInst::quiesceSkip()
3967279795478: global: PseudoInst::quiesce()
3967279964084: global: PseudoInst::quiesceSkip()
3967279970544: global: PseudoInst::quiesce()
3967280251231: global: PseudoInst::quiesceSkip()
3967280257691: global: PseudoInst::quiesce()
3967280405625: global: PseudoInst::quiesceSkip()
3967280412085: global: PseudoInst::quiesce()
3967280937606: global: PseudoInst::quiesceSkip()
3967280944066: global: PseudoInst::quiesce()
3967281072943: global: PseudoInst::quiesceSkip()
3967281079403: global: PseudoInst::quiesce()
3967282739623: global: PseudoInst::quiesceSkip()
3967282746083: global: PseudoInst::quiesce()
3967282767724: global: PseudoInst::quiesceSkip()
3967282774184: global: PseudoInst::quiesce()
3967282808422: global: PseudoInst::quiesceSkip()
3967282814882: global: PseudoInst::quiesce()
3967285135960: global: PseudoInst::quiesceSkip()
3967285142420: global: PseudoInst::quiesce()
3967285216710: global: PseudoInst::quiesceSkip()
3967285223170: global: PseudoInst::quiesce()
3967285488030: global: PseudoInst::quiesceSkip()
3967285494490: global: PseudoInst::quiesce()
3967285690228: global: PseudoInst::quiesceSkip()
3967285696688: global: PseudoInst::quiesce()
3967286052311: global: PseudoInst::quiesceSkip()
3967286058771: global: PseudoInst::quiesce()
3967286139198: global: PseudoInst::quiesceSkip()
3967286145658: global: PseudoInst::quiesce()
3967286986104: global: PseudoInst::quiesceSkip()
3967286992564: global: PseudoInst::quiesce()
3967287056195: global: PseudoInst::quiesceSkip()
3967287062655: global: PseudoInst::quiesce()
3967287091079: global: PseudoInst::quiesceSkip()
3967287097539: global: PseudoInst::quiesce()
3967287266791: global: PseudoInst::quiesceSkip()
3967287273251: global: PseudoInst::quiesce()
3967287353678: global: PseudoInst::quiesceSkip()
3967287360138: global: PseudoInst::quiesce()
3967289716423: global: PseudoInst::quiesceSkip()
3967289722883: global: PseudoInst::quiesce()
3967289997433: global: PseudoInst::quiesceSkip()
3967290003893: global: PseudoInst::quiesce()
3967290084320: global: PseudoInst::quiesceSkip()
3967290090780: global: PseudoInst::quiesce()
3967291329808: global: PseudoInst::quiesceSkip()
3967291336268: global: PseudoInst::quiesce()
3967291360493: global: PseudoInst::quiesceSkip()
3967291366953: global: PseudoInst::quiesce()
3967291807202: global: PseudoInst::quiesceSkip()
3967291813662: global: PseudoInst::quiesce()
3967292547841: global: PseudoInst::quiesceSkip()
3967292554301: global: PseudoInst::quiesce()
3967292713217: global: PseudoInst::quiesceSkip()
3967292719677: global: PseudoInst::quiesce()
3967293001979: global: PseudoInst::quiesceSkip()
3967293008439: global: PseudoInst::quiesce()
3967293056566: global: PseudoInst::quiesceSkip()
3967293063026: global: PseudoInst::quiesce()
3967293112768: global: PseudoInst::quiesceSkip()
3967293119228: global: PseudoInst::quiesce()
3967293987452: global: PseudoInst::quiesceSkip()
3967293993912: global: PseudoInst::quiesce()
3967294022336: global: PseudoInst::quiesceSkip()
3967294028796: global: PseudoInst::quiesce()
3967296838250: global: PseudoInst::quiesce()
3967305618359: global: PseudoInst::quiesceSkip()
3967305624819: global: PseudoInst::quiesce()
3967305895816: global: PseudoInst::quiesceSkip()
3967305902276: global: PseudoInst::quiesce()
3967305973982: global: PseudoInst::quiesceSkip()
3967305980442: global: PseudoInst::quiesce()
3967308206235: global: PseudoInst::quiesceSkip()
3967308212695: global: PseudoInst::quiesce()
3967308468834: global: PseudoInst::quiesceSkip()
3967308475294: global: PseudoInst::quiesce()
3967308556044: global: PseudoInst::quiesceSkip()
3967308562504: global: PseudoInst::quiesce()
3967310237259: global: PseudoInst::quiesceSkip()
3967310243719: global: PseudoInst::quiesce()
3967310262776: global: PseudoInst::quiesceSkip()
3967310269236: global: PseudoInst::quiesce()
3967310299275: global: PseudoInst::quiesceSkip()
3967310305735: global: PseudoInst::quiesce()
3967311067046: global: PseudoInst::quiesceSkip()
3967311073506: global: PseudoInst::quiesce()
3967311326738: global: PseudoInst::quiesceSkip()
3967311333198: global: PseudoInst::quiesce()
3967311471119: global: PseudoInst::quiesceSkip()
3967311477579: global: PseudoInst::quiesce()
3967311862272: global: PseudoInst::quiesceSkip()
3967311868732: global: PseudoInst::quiesce()
3967312181719: global: PseudoInst::quiesceSkip()
3967312188179: global: PseudoInst::quiesce()
3967312339666: global: PseudoInst::quiesceSkip()
3967312346126: global: PseudoInst::quiesce()
3967312462083: global: PseudoInst::quiesceSkip()
3967312468543: global: PseudoInst::quiesce()
3967312492768: global: PseudoInst::quiesceSkip()
3967312499228: global: PseudoInst::quiesce()
3967312618738: global: PseudoInst::quiesceSkip()
3967312625198: global: PseudoInst::quiesce()
3967312874877: global: PseudoInst::quiesceSkip()
3967312881337: global: PseudoInst::quiesce()
3967312962087: global: PseudoInst::quiesceSkip()
3967312968547: global: PseudoInst::quiesce()
3967313449494: global: PseudoInst::quiesceSkip()
3967313455954: global: PseudoInst::quiesce()
3967315250542: global: PseudoInst::quiesce()
3967412883752: global: PseudoInst::quiesceSkip()
3967494133756: global: PseudoInst::quiesceSkip()
3967497006841: global: PseudoInst::quiesceSkip()
3967500280123: global: PseudoInst::quiesce()
3967517950807: global: PseudoInst::quiesceSkip()
3967518068702: global: PseudoInst::quiesceSkip()
3967521453096: global: PseudoInst::quiesceSkip()
3967521756393: global: PseudoInst::quiesceSkip()
3967521765114: global: PseudoInst::quiesce()
3967522674359: global: PseudoInst::quiesce()
3967523210539: global: PseudoInst::quiesceSkip()
3967565604935: global: PseudoInst::quiesce()
3967577108580: global: PseudoInst::quiesceSkip()
3967577237134: global: PseudoInst::quiesceSkip()
3967595063181: global: PseudoInst::quiesceSkip()
3967608705086: global: PseudoInst::quiesceSkip()
3967608713807: global: PseudoInst::quiesce()
3967611502266: global: PseudoInst::quiesceSkip()
3967613552993: global: PseudoInst::quiesce()
3967647162112: global: PseudoInst::quiesce()
3967681329375: global: PseudoInst::quiesceSkip()
3967681470849: global: PseudoInst::quiesceSkip()
3967761341966: global: PseudoInst::quiesceSkip()
3967761350687: global: PseudoInst::quiesce()
3967761372974: global: PseudoInst::quiesceSkip()
3967761379434: global: PseudoInst::quiesce()
3967923250561: global: PseudoInst::readfile(0x7efbfbd8, 0x40000, 0x0)
3967930573294: global: PseudoInst::readfile(0x7efbfbd8, 0x40000, 0x22c)
3967955829633: global: PseudoInst::quiesceSkip()
3967955937192: global: PseudoInst::quiesceSkip()
3967958855820: global: PseudoInst::quiesceSkip()
3967959117127: global: PseudoInst::quiesceSkip()
3967959125848: global: PseudoInst::quiesce()
3967959346457: global: PseudoInst::quiesce()
3967960356155: global: PseudoInst::quiesce()
3967960586777: global: PseudoInst::quiesceSkip()
3967965658846: global: PseudoInst::quiesceSkip()
3968039418157: global: PseudoInst::quiesceSkip()
3968099642476: global: PseudoInst::quiesceSkip()
3968111821191: global: PseudoInst::quiesceSkip()
3968114498538: global: PseudoInst::quiesce()
3968119368086: global: PseudoInst::quiesce()
3968131089433: global: PseudoInst::quiesceSkip()
3968131208297: global: PseudoInst::quiesceSkip()
3968183452255: global: PseudoInst::quiesceSkip()
3968234851891: global: PseudoInst::quiesceSkip()
3968396009188: global: PseudoInst::quiesceSkip()
3968396123853: global: PseudoInst::quiesceSkip()
3968398975297: global: PseudoInst::quiesceSkip()
3968399259214: global: PseudoInst::quiesceSkip()
3968399267935: global: PseudoInst::quiesce()
3968400627765: global: PseudoInst::quiesceSkip()
3968400895209: global: PseudoInst::quiesce()
3968404671402: global: PseudoInst::quiesceSkip()
3968430646093: global: PseudoInst::quiesceSkip()
3968430654814: global: PseudoInst::quiesce()
3968431580855: global: PseudoInst::quiesceSkip()
3968431587315: global: PseudoInst::quiesce()
3968432149658: global: PseudoInst::quiesceSkip()
3968432156118: global: PseudoInst::quiesce()
3968432293716: global: PseudoInst::quiesceSkip()
3968432300176: global: PseudoInst::quiesce()
3968433032094: global: PseudoInst::quiesceSkip()
3968433038554: global: PseudoInst::quiesce()
3968433451025: global: PseudoInst::quiesceSkip()
3968433457485: global: PseudoInst::quiesce()
3968433537912: global: PseudoInst::quiesceSkip()
3968433544372: global: PseudoInst::quiesce()
3968434169054: global: PseudoInst::quiesceSkip()
3968434175514: global: PseudoInst::quiesce()
3968434598644: global: PseudoInst::quiesceSkip()
3968434605104: global: PseudoInst::quiesce()
3968434685854: global: PseudoInst::quiesceSkip()
3968434692314: global: PseudoInst::quiesce()
3968435136116: global: PseudoInst::quiesceSkip()
3968435142576: global: PseudoInst::quiesce()
3968435161310: global: PseudoInst::quiesceSkip()
3968435167770: global: PseudoInst::quiesce()
3968435199747: global: PseudoInst::quiesceSkip()
3968435206207: global: PseudoInst::quiesce()
3968436308283: global: PseudoInst::quiesceSkip()
3968436314743: global: PseudoInst::quiesce()
3968436376759: global: PseudoInst::quiesceSkip()
3968436383219: global: PseudoInst::quiesce()
3968436557316: global: PseudoInst::quiesceSkip()
3968436563776: global: PseudoInst::quiesce()
3968437014361: global: PseudoInst::quiesceSkip()
3968437020821: global: PseudoInst::quiesce()
3968437101894: global: PseudoInst::quiesceSkip()
3968437108354: global: PseudoInst::quiesce()
3968437129995: global: PseudoInst::quiesceSkip()
3968437136455: global: PseudoInst::quiesce()
3968438500161: global: PseudoInst::quiesceSkip()
3968438506621: global: PseudoInst::quiesce()
3968438714633: global: PseudoInst::quiesceSkip()
3968438721093: global: PseudoInst::quiesce()
3968438905526: global: PseudoInst::quiesceSkip()
3968438911986: global: PseudoInst::quiesce()
3968439106432: global: PseudoInst::quiesceSkip()
3968439112892: global: PseudoInst::quiesce()
3968439211084: global: PseudoInst::quiesceSkip()
3968439217544: global: PseudoInst::quiesce()
3968439241769: global: PseudoInst::quiesceSkip()
3968439248229: global: PseudoInst::quiesce()
3968439341253: global: PseudoInst::quiesceSkip()
3968439347713: global: PseudoInst::quiesce()
3968440000173: global: PseudoInst::quiesceSkip()
3968440006633: global: PseudoInst::quiesce()
3968440164903: global: PseudoInst::quiesceSkip()
3968440171363: global: PseudoInst::quiesce()
3968440320266: global: PseudoInst::quiesceSkip()
3968440326726: global: PseudoInst::quiesce()
3968442198511: global: PseudoInst::quiesce()
3968476434573: global: PseudoInst::quiesceSkip()
3968476574109: global: PseudoInst::quiesceSkip()
3968481493399: global: PseudoInst::quiesceSkip()
3968482754714: global: PseudoInst::quiesceSkip()
3968493180185: global: PseudoInst::quiesceSkip()
3968536266124: global: PseudoInst::quiesceSkip()
3968545812066: global: PseudoInst::quiesceSkip()
3968548487152: global: PseudoInst::quiesce()
3968561227564: global: PseudoInst::quiesceSkip()
3968563840634: global: PseudoInst::quiesce()
3968564326749: global: PseudoInst::quiesce()
3968575408556: global: PseudoInst::quiesceSkip()
3968575530327: global: PseudoInst::quiesceSkip()
3968581801695: global: PseudoInst::quiesce()
3968598570240: global: PseudoInst::quiesceSkip()
3968598705900: global: PseudoInst::quiesceSkip()
3968868083378: global: PseudoInst::quiesceSkip()
3968868213224: global: PseudoInst::quiesceSkip()
3968872833416: global: PseudoInst::quiesce()
3970341838385: global: PseudoInst::quiesceSkip()
3970341847106: global: PseudoInst::quiesce()
3970342074498: global: PseudoInst::quiesceSkip()
3970342086772: global: PseudoInst::quiesceSkip()
3970342093232: global: PseudoInst::quiesce()
3970342228569: global: PseudoInst::quiesce()
3970342556414: global: PseudoInst::quiesceSkip()
3970342562874: global: PseudoInst::quiesce()
3970342904285: global: PseudoInst::quiesceSkip()
3970342910745: global: PseudoInst::quiesce()
3970342986650: global: PseudoInst::quiesceSkip()
3970342993110: global: PseudoInst::quiesce()
3970343077736: global: PseudoInst::quiesceSkip()
3970343084196: global: PseudoInst::quiesce()
3970343677870: global: PseudoInst::quiesceSkip()
3970343686591: global: PseudoInst::quiesce()
3970343741178: global: PseudoInst::quiesceSkip()
3970343753452: global: PseudoInst::quiesceSkip()
3970343759912: global: PseudoInst::quiesce()
3970344010883: global: PseudoInst::quiesce()
3970345848107: global: PseudoInst::quiesceSkip()
3970347203092: global: PseudoInst::quiesceSkip()
3970348198901: global: PseudoInst::quiesce()
3970382872951: global: PseudoInst::quiesceSkip()
3970392189240: global: PseudoInst::quiesceSkip()
3970394317810: global: PseudoInst::quiesce()
3970434266127: global: PseudoInst::quiesce()
3970444947737: global: PseudoInst::quiesceSkip()
3970445070800: global: PseudoInst::quiesceSkip()
3970678087845: global: PseudoInst::quiesceSkip()
3970762725796: global: PseudoInst::quiesceSkip()
3970762858872: global: PseudoInst::quiesceSkip()
3970765545909: global: PseudoInst::quiesceSkip()
3970765798172: global: PseudoInst::quiesceSkip()
3970765806893: global: PseudoInst::quiesce()
3970766099854: global: PseudoInst::quiesce()
3970767075960: global: PseudoInst::quiesce()
3970767201930: global: PseudoInst::quiesceSkip()
3970806848565: global: PseudoInst::quiesceSkip()
3970815919051: global: PseudoInst::quiesceSkip()
3970817885798: global: PseudoInst::quiesce()
3970848689339: global: PseudoInst::quiesce()
3970858919395: global: PseudoInst::quiesceSkip()
3970859035998: global: PseudoInst::quiesceSkip()
3970992227632: global: PseudoInst::quiesceSkip()
3971064877438: global: PseudoInst::quiesceSkip()
3971066768926: global: PseudoInst::quiesceSkip()
3971071684017: global: PseudoInst::quiesceSkip()
3971072511543: global: PseudoInst::quiesceSkip()
3971221995620: global: PseudoInst::quiesceSkip()
3971269887799: global: PseudoInst::quiesceSkip()
3971270925598: global: PseudoInst::quiesceSkip()
3971275082608: global: PseudoInst::quiesceSkip()
3971275900767: global: PseudoInst::quiesceSkip()
3971348390042: global: PseudoInst::quiesceSkip()
3971348497924: global: PseudoInst::quiesceSkip()
3971351104534: global: PseudoInst::quiesceSkip()
3971352185615: global: PseudoInst::quiesceSkip()
3971352843566: global: PseudoInst::quiesce()
3971392340006: global: PseudoInst::quiesceSkip()
3971403087508: global: PseudoInst::quiesceSkip()
3971405073635: global: PseudoInst::quiesce()
3971432264744: global: PseudoInst::quiesceSkip()
3971433230837: global: PseudoInst::quiesce()
3971443385634: global: PseudoInst::quiesceSkip()
3971443510635: global: PseudoInst::quiesceSkip()
3971465016298: global: PseudoInst::quiesceSkip()
3971465025019: global: PseudoInst::quiesceSkip()
3971465038908: global: PseudoInst::quiesce()
3971465258548: global: PseudoInst::quiesceSkip()
3971465267269: global: PseudoInst::quiesce()
3971499604107: global: PseudoInst::quiesceSkip()
3971501658387: global: PseudoInst::quiesceSkip()
3971501667108: global: PseudoInst::quiesce()
3971501749150: global: PseudoInst::quiesceSkip()
3971501761424: global: PseudoInst::quiesceSkip()
3971501767884: global: PseudoInst::quiesce()
3971501840882: global: PseudoInst::quiesceSkip()
3971501847342: global: PseudoInst::quiesce()
3971501996245: global: PseudoInst::quiesceSkip()
3971502004966: global: PseudoInst::quiesce()
3971503692318: global: PseudoInst::quiesce()
3971504972690: global: PseudoInst::quiesce()
3971524291966: global: PseudoInst::quiesceSkip()
3971524418905: global: PseudoInst::quiesceSkip()
3971662881899: global: PseudoInst::quiesceSkip()
3971662993011: global: PseudoInst::quiesceSkip()
3971666272107: global: PseudoInst::quiesceSkip()
3971667096403: global: PseudoInst::quiesce()
3971667575735: global: PseudoInst::quiesceSkip()
3971705944582: global: PseudoInst::quiesceSkip()
3971722178239: global: PseudoInst::quiesceSkip()
3971723466040: global: PseudoInst::quiesce()
3971752095791: global: PseudoInst::quiesce()
3971768809426: global: PseudoInst::quiesceSkip()
3971768931197: global: PseudoInst::quiesceSkip()
3971778747813: global: PseudoInst::quiesceSkip()
3971778880243: global: PseudoInst::quiesceSkip()
3971783862195: global: PseudoInst::quiesce()
3972126505440: global: PseudoInst::quiesceSkip()
3972195737906: global: PseudoInst::quiesceSkip()
3972237346120: global: PseudoInst::quiesceSkip()
3972277983073: global: PseudoInst::quiesceSkip()
3972279458214: global: PseudoInst::quiesceSkip()
3972285130417: global: PseudoInst::quiesceSkip()
3972334750323: global: PseudoInst::quiesceSkip()
3972347060499: global: PseudoInst::quiesceSkip()
3972347076649: global: PseudoInst::quiesceSkip()
3972347088923: global: PseudoInst::quiesceSkip()
3972347095383: global: PseudoInst::quiesce()
3972347142864: global: PseudoInst::quiesceSkip()
3972347158045: global: PseudoInst::quiesce()
3972347366703: global: PseudoInst::quiesceSkip()
3972347495257: global: PseudoInst::quiesceSkip()
3972347503978: global: PseudoInst::quiesce()
3972347521743: global: PseudoInst::quiesceSkip()
3972347528203: global: PseudoInst::quiesce()
3972347552428: global: PseudoInst::quiesce()
3972347577945: global: PseudoInst::quiesceSkip()
3972347595710: global: PseudoInst::quiesce()
3972347879627: global: PseudoInst::quiesceSkip()
3972347901268: global: PseudoInst::quiesce()
3972348140611: global: PseudoInst::quiesceSkip()
3972348149332: global: PseudoInst::quiesce()
3972401300920: global: PseudoInst::quiesceSkip()
3972401438518: global: PseudoInst::quiesceSkip()
3972405197269: global: PseudoInst::quiesce()
3972407231200: global: PseudoInst::quiesceSkip()
3972408342966: global: PseudoInst::quiesceSkip()
3972436791837: global: PseudoInst::quiesceSkip()
3972469535962: global: PseudoInst::quiesceSkip()
3972472800200: global: PseudoInst::quiesce()
3972473979796: global: PseudoInst::quiesceSkip()
3972500497127: global: PseudoInst::quiesce()
3972500976459: global: PseudoInst::quiesceSkip()
3972514041163: global: PseudoInst::quiesceSkip()
3972514171009: global: PseudoInst::quiesceSkip()
3972534628537: global: PseudoInst::quiesce()
3972544561433: global: PseudoInst::quiesce()
3972547555643: global: PseudoInst::quiesceSkip()
3972547676122: global: PseudoInst::quiesceSkip()
3972548202612: global: PseudoInst::quiesceSkip()
3972548211333: global: PseudoInst::quiesce()
3972548226837: global: PseudoInst::quiesceSkip()
3972548233297: global: PseudoInst::quiesce()
3972560301223: global: PseudoInst::quiesceSkip()
3972560309944: global: PseudoInst::quiesce()
3972560338691: global: PseudoInst::quiesceSkip()
3972560345151: global: PseudoInst::quiesce()
3972561754723: global: PseudoInst::quiesceSkip()
3972561763444: global: PseudoInst::quiesce()
3972562424948: global: PseudoInst::quiesceSkip()
3972562552533: global: PseudoInst::quiesceSkip()
3972582596621: global: PseudoInst::quiesceSkip()
3972582605342: global: PseudoInst::quiesce()
3972582633120: global: PseudoInst::quiesceSkip()
3972582639580: global: PseudoInst::quiesce()
3972587518818: global: PseudoInst::dumpresetstats(3980000000, 500000)
3972587518818: global: PseudoInst::dumpresetstats when is (curtick = 3972587518818 + (delay = 3980000000 * SimClock::Int::ns = 1000))
3972587518818: global: PseudoInst::dumpresetstats repeat is (period = 500000 * SimClock::Int::ns = 1000
3972587518818: global: PseudoInst::dumpresetstats when = 7952587518818 and repeat = 500000000
3972599722727: global: PseudoInst::quiesceSkip()
3972599832870: global: PseudoInst::quiesceSkip()
3972602929794: global: PseudoInst::quiesceSkip()
3972604285748: global: PseudoInst::quiesceSkip()
3972604714369: global: PseudoInst::quiesceSkip()
3972604723090: global: PseudoInst::quiesce()
3972604933686: global: PseudoInst::quiesceSkip()
3972604940146: global: PseudoInst::quiesceSkip()
3972604954035: global: PseudoInst::quiesce()
3972610494131: global: PseudoInst::quiesceSkip()
3972651259638: global: PseudoInst::quiesceSkip()
3972651268359: global: PseudoInst::quiesce()
3972651345879: global: PseudoInst::quiesceSkip()
3972651358153: global: PseudoInst::quiesceSkip()
3972651366874: global: PseudoInst::quiesce()
3972651430182: global: PseudoInst::quiesceSkip()
3972651436642: global: PseudoInst::quiesce()
3972677129677: global: PseudoInst::quiesce()
3972712745918: global: PseudoInst::quiesceSkip()
3972745010388: global: PseudoInst::quiesceSkip()
3972747885088: global: PseudoInst::quiesce()
