gem5 Simulator System.  http://gem5.org
gem5 is copyrighted software; use the --copyright option for details.

gem5 compiled Apr 11 2015 13:16:45
gem5 started Apr 11 2015 13:46:15
gem5 executing on bigbird
command line: ./build/ARM/gem5.opt --debug-flags=PseudoInst configs/example/haswell.py --machine-type=VExpress_EMM --dtb-filename=vexpress-v2p-ca15-tc1-gem5_dvfs_per_core_4cpus.dtb --kernel=vmlinux.ondemand95.e1000 --mem-size=2048MB --link-delay=25us --switch-link-delay=15us --link-delay-var=0ns --link-speed=230Mbps --tcp-speed=160Mbps --udp-speed=160Mbps --no-ip-speed=160Mbps --link-rate-scale=2 --link-delay-opt=47us --link-delay-queue=47us --link-retry-time=75us --nic-queue-th=50ms --sys-clock=2GHz --cpu-clock=1GHz --num-cpus=4 --tcp-retry-speed=1Gbps --tcp-process-speed=180Mbps --udp-retry-speed=160Mbps --no-ip-retry-speed=160Mbps --tcp-jmp-delay0=55us --tcp-jmp-delay1=130us --tcp-jmp-size0=131 --tcp-jmp-size1=323 --tap-first-delay=1s --checkpoint-restore=1 --eth --cpu-type=arm_detailed --caches --checkpoint-dir=/research/ljindal/alian/gem5/ckptdir/WORKING_PING_NPB_CKPT_5NODES/tux0 --sync-host=128.104.189.79 --mac=00:90:00:00:00:00 --tap-port=3500 --script=tux0.sh --disk-image=/research/ljindal/alian/gem5/disks/NPB/tux0.img
Global frequency set at 1000000000000 ticks per second
warn: DRAM device capacity (8192 Mbytes) does not match the address range assigned (2048 Mbytes)
info: kernel located at: /users/ljindal/pd-gem5/binaries/vmlinux.ondemand95.e1000
      0: system.cpu0.isa: ISA system set to: 0x448f680 0x448f680
      0: system.cpu1.isa: ISA system set to: 0x448f680 0x448f680
      0: system.cpu2.isa: ISA system set to: 0x448f680 0x448f680
      0: system.cpu3.isa: ISA system set to: 0x448f680 0x448f680
lo= 127.0.0.1
eth0= 128.104.181.93
tapport= 3500
Listening for tap connection on port 3500
Listening for system connection on port 5900
Listening for system connection on port 3456
      0: system.switch_cpus0.isa: ISA system set to: 0x448f680 0x448f680
      0: system.switch_cpus1.isa: ISA system set to: 0x448f680 0x448f680
      0: system.switch_cpus2.isa: ISA system set to: 0x448f680 0x448f680
      0: system.switch_cpus3.isa: ISA system set to: 0x448f680 0x448f680
0: system.remote_gdb.listener: listening for remote gdb #0 on port 7000
0: system.remote_gdb.listener: listening for remote gdb #1 on port 7002
0: system.remote_gdb.listener: listening for remote gdb #2 on port 7003
0: system.remote_gdb.listener: listening for remote gdb #3 on port 7004
Switch at curTick count:10000
Switched CPUS @ tick 3966960010000
switching cpus
**** REAL SIMULATION ****
warn: 	instruction 'mcr dcisw' unimplemented
warn: 	instruction 'mcr icialluis' unimplemented
3966980983656: global: PseudoInst::quiesceSkip()
3966981616413: global: PseudoInst::quiesceSkip()
3966997138501: global: PseudoInst::quiesceSkip()
3966997147222: global: PseudoInst::quiesce()
3966998981216: global: PseudoInst::quiesceSkip()
3967000584265: global: PseudoInst::quiesceSkip()
3967000592986: global: PseudoInst::quiesce()
3967000640790: global: PseudoInst::quiesceSkip()
3967000653064: global: PseudoInst::quiesceSkip()
3967000659524: global: PseudoInst::quiesce()
3967000829422: global: PseudoInst::quiesceSkip()
3967000835882: global: PseudoInst::quiesce()
3967001095251: global: PseudoInst::quiesce()
3967001163081: global: PseudoInst::quiesceSkip()
3967001169541: global: PseudoInst::quiesce()
3967001427618: global: PseudoInst::quiesceSkip()
3967001434078: global: PseudoInst::quiesce()
3967001498355: global: PseudoInst::quiesceSkip()
3967001504815: global: PseudoInst::quiesce()
3967005304587: global: PseudoInst::quiesce()
3967006558150: global: PseudoInst::quiesceSkip()
3967027434286: global: PseudoInst::quiesceSkip()
3967074451135: global: PseudoInst::quiesce()
warn: 	instruction 'mcr dccimvac' unimplemented
3967111669133: global: PseudoInst::quiesceSkip()
3967112105183: global: PseudoInst::quiesceSkip()
warn: 	instruction 'mcr bpiall' unimplemented
3967151296065: global: PseudoInst::quiesce()
3967277925308: global: PseudoInst::quiesceSkip()
3967277934029: global: PseudoInst::quiesce()
3967278147532: global: PseudoInst::quiesceSkip()
3967278156253: global: PseudoInst::quiesce()
3967278171434: global: PseudoInst::quiesceSkip()
3967278177894: global: PseudoInst::quiesce()
3967278540623: global: PseudoInst::quiesceSkip()
3967278547083: global: PseudoInst::quiesce()
3967278893985: global: PseudoInst::quiesceSkip()
3967278906259: global: PseudoInst::quiesceSkip()
3967278912719: global: PseudoInst::quiesce()
3967279114271: global: PseudoInst::quiesceSkip()
3967279120731: global: PseudoInst::quiesce()
3967279789018: global: PseudoInst::quiesceSkip()
3967279795478: global: PseudoInst::quiesce()
3967279964084: global: PseudoInst::quiesceSkip()
3967279970544: global: PseudoInst::quiesce()
3967280251231: global: PseudoInst::quiesceSkip()
3967280257691: global: PseudoInst::quiesce()
3967280405625: global: PseudoInst::quiesceSkip()
3967280412085: global: PseudoInst::quiesce()
3967280937606: global: PseudoInst::quiesceSkip()
3967280944066: global: PseudoInst::quiesce()
3967281072943: global: PseudoInst::quiesceSkip()
3967281079403: global: PseudoInst::quiesce()
3967282739623: global: PseudoInst::quiesceSkip()
3967282746083: global: PseudoInst::quiesce()
3967282767724: global: PseudoInst::quiesceSkip()
3967282774184: global: PseudoInst::quiesce()
3967282808422: global: PseudoInst::quiesceSkip()
3967282814882: global: PseudoInst::quiesce()
3967285135960: global: PseudoInst::quiesceSkip()
3967285142420: global: PseudoInst::quiesce()
3967285216710: global: PseudoInst::quiesceSkip()
3967285223170: global: PseudoInst::quiesce()
3967285488030: global: PseudoInst::quiesceSkip()
3967285494490: global: PseudoInst::quiesce()
3967285690228: global: PseudoInst::quiesceSkip()
3967285696688: global: PseudoInst::quiesce()
3967286052311: global: PseudoInst::quiesceSkip()
3967286058771: global: PseudoInst::quiesce()
3967286139198: global: PseudoInst::quiesceSkip()
3967286145658: global: PseudoInst::quiesce()
3967286986104: global: PseudoInst::quiesceSkip()
3967286992564: global: PseudoInst::quiesce()
3967287056195: global: PseudoInst::quiesceSkip()
3967287062655: global: PseudoInst::quiesce()
3967287091079: global: PseudoInst::quiesceSkip()
3967287097539: global: PseudoInst::quiesce()
3967287266791: global: PseudoInst::quiesceSkip()
3967287273251: global: PseudoInst::quiesce()
3967287353678: global: PseudoInst::quiesceSkip()
3967287360138: global: PseudoInst::quiesce()
3967289716423: global: PseudoInst::quiesceSkip()
3967289722883: global: PseudoInst::quiesce()
3967289997433: global: PseudoInst::quiesceSkip()
3967290003893: global: PseudoInst::quiesce()
3967290084320: global: PseudoInst::quiesceSkip()
3967290090780: global: PseudoInst::quiesce()
3967291329808: global: PseudoInst::quiesceSkip()
3967291336268: global: PseudoInst::quiesce()
3967291360493: global: PseudoInst::quiesceSkip()
3967291366953: global: PseudoInst::quiesce()
3967291807202: global: PseudoInst::quiesceSkip()
3967291813662: global: PseudoInst::quiesce()
3967292547841: global: PseudoInst::quiesceSkip()
3967292554301: global: PseudoInst::quiesce()
3967292713217: global: PseudoInst::quiesceSkip()
3967292719677: global: PseudoInst::quiesce()
3967293001979: global: PseudoInst::quiesceSkip()
3967293008439: global: PseudoInst::quiesce()
3967293056566: global: PseudoInst::quiesceSkip()
3967293063026: global: PseudoInst::quiesce()
3967293112768: global: PseudoInst::quiesceSkip()
3967293119228: global: PseudoInst::quiesce()
3967293987452: global: PseudoInst::quiesceSkip()
3967293993912: global: PseudoInst::quiesce()
3967294022336: global: PseudoInst::quiesceSkip()
3967294028796: global: PseudoInst::quiesce()
3967296838250: global: PseudoInst::quiesce()
3967305618359: global: PseudoInst::quiesceSkip()
3967305624819: global: PseudoInst::quiesce()
3967305895816: global: PseudoInst::quiesceSkip()
3967305902276: global: PseudoInst::quiesce()
3967305973982: global: PseudoInst::quiesceSkip()
3967305980442: global: PseudoInst::quiesce()
3967308206235: global: PseudoInst::quiesceSkip()
3967308212695: global: PseudoInst::quiesce()
3967308468834: global: PseudoInst::quiesceSkip()
3967308475294: global: PseudoInst::quiesce()
3967308556044: global: PseudoInst::quiesceSkip()
3967308562504: global: PseudoInst::quiesce()
3967310237259: global: PseudoInst::quiesceSkip()
3967310243719: global: PseudoInst::quiesce()
3967310262776: global: PseudoInst::quiesceSkip()
3967310269236: global: PseudoInst::quiesce()
3967310299275: global: PseudoInst::quiesceSkip()
3967310305735: global: PseudoInst::quiesce()
3967311067046: global: PseudoInst::quiesceSkip()
3967311073506: global: PseudoInst::quiesce()
3967311326738: global: PseudoInst::quiesceSkip()
3967311333198: global: PseudoInst::quiesce()
3967311471119: global: PseudoInst::quiesceSkip()
3967311477579: global: PseudoInst::quiesce()
3967311862272: global: PseudoInst::quiesceSkip()
3967311868732: global: PseudoInst::quiesce()
3967312181719: global: PseudoInst::quiesceSkip()
3967312188179: global: PseudoInst::quiesce()
3967312339666: global: PseudoInst::quiesceSkip()
3967312346126: global: PseudoInst::quiesce()
3967312462083: global: PseudoInst::quiesceSkip()
3967312468543: global: PseudoInst::quiesce()
3967312492768: global: PseudoInst::quiesceSkip()
3967312499228: global: PseudoInst::quiesce()
3967312618738: global: PseudoInst::quiesceSkip()
3967312625198: global: PseudoInst::quiesce()
3967312874877: global: PseudoInst::quiesceSkip()
3967312881337: global: PseudoInst::quiesce()
3967312962087: global: PseudoInst::quiesceSkip()
3967312968547: global: PseudoInst::quiesce()
3967313449494: global: PseudoInst::quiesceSkip()
3967313455954: global: PseudoInst::quiesce()
3967315250542: global: PseudoInst::quiesce()
3967412883752: global: PseudoInst::quiesceSkip()
3967494133756: global: PseudoInst::quiesceSkip()
3967497006841: global: PseudoInst::quiesceSkip()
3967500280123: global: PseudoInst::quiesce()
3967517950807: global: PseudoInst::quiesceSkip()
3967518068702: global: PseudoInst::quiesceSkip()
3967521453096: global: PseudoInst::quiesceSkip()
3967521756393: global: PseudoInst::quiesceSkip()
3967521765114: global: PseudoInst::quiesce()
3967522674359: global: PseudoInst::quiesce()
3967523210539: global: PseudoInst::quiesceSkip()
3967565604935: global: PseudoInst::quiesce()
3967577108580: global: PseudoInst::quiesceSkip()
3967577237134: global: PseudoInst::quiesceSkip()
3967595063181: global: PseudoInst::quiesceSkip()
3967608705086: global: PseudoInst::quiesceSkip()
3967608713807: global: PseudoInst::quiesce()
3967611502266: global: PseudoInst::quiesceSkip()
3967613552993: global: PseudoInst::quiesce()
3967647162112: global: PseudoInst::quiesce()
3967681329375: global: PseudoInst::quiesceSkip()
3967681470849: global: PseudoInst::quiesceSkip()
3967761341966: global: PseudoInst::quiesceSkip()
3967761350687: global: PseudoInst::quiesce()
3967761372974: global: PseudoInst::quiesceSkip()
3967761379434: global: PseudoInst::quiesce()
3967923250561: global: PseudoInst::readfile(0x7efbfbd8, 0x40000, 0x0)
3967930572325: global: PseudoInst::readfile(0x7efbfbd8, 0x40000, 0x226)
3967955856765: global: PseudoInst::quiesceSkip()
3967955969815: global: PseudoInst::quiesceSkip()
3967958877461: global: PseudoInst::quiesceSkip()
3967959138768: global: PseudoInst::quiesceSkip()
3967959147489: global: PseudoInst::quiesce()
3967959349687: global: PseudoInst::quiesce()
3967960357770: global: PseudoInst::quiesce()
3967960477926: global: PseudoInst::quiesceSkip()
3967965549672: global: PseudoInst::quiesceSkip()
3968039467576: global: PseudoInst::quiesceSkip()
3968099634401: global: PseudoInst::quiesceSkip()
3968112230432: global: PseudoInst::quiesceSkip()
3968114960428: global: PseudoInst::quiesce()
3968119068988: global: PseudoInst::quiesce()
3968130726058: global: PseudoInst::quiesceSkip()
3968130849444: global: PseudoInst::quiesceSkip()
3968183059810: global: PseudoInst::quiesceSkip()
3968234497560: global: PseudoInst::quiesceSkip()
3968395979795: global: PseudoInst::quiesceSkip()
3968396098013: global: PseudoInst::quiesceSkip()
3968398946873: global: PseudoInst::quiesceSkip()
3968399238865: global: PseudoInst::quiesceSkip()
3968399247586: global: PseudoInst::quiesce()
3968400599018: global: PseudoInst::quiesceSkip()
3968400865493: global: PseudoInst::quiesce()
3968404620691: global: PseudoInst::quiesceSkip()
3968430698742: global: PseudoInst::quiesceSkip()
3968430707463: global: PseudoInst::quiesce()
3968431191640: global: PseudoInst::quiesceSkip()
3968431198100: global: PseudoInst::quiesce()
3968431712316: global: PseudoInst::quiesceSkip()
3968431718776: global: PseudoInst::quiesce()
3968432018520: global: PseudoInst::quiesceSkip()
3968432024980: global: PseudoInst::quiesce()
3968432786937: global: PseudoInst::quiesceSkip()
3968432793397: global: PseudoInst::quiesce()
3968433211682: global: PseudoInst::quiesceSkip()
3968433218142: global: PseudoInst::quiesce()
3968433298892: global: PseudoInst::quiesceSkip()
3968433305352: global: PseudoInst::quiesce()
3968433926481: global: PseudoInst::quiesceSkip()
3968433932941: global: PseudoInst::quiesce()
3968434354133: global: PseudoInst::quiesceSkip()
3968434360593: global: PseudoInst::quiesce()
3968434441020: global: PseudoInst::quiesceSkip()
3968434447480: global: PseudoInst::quiesce()
3968435197163: global: PseudoInst::quiesceSkip()
3968435203623: global: PseudoInst::quiesce()
3968435222357: global: PseudoInst::quiesceSkip()
3968435228817: global: PseudoInst::quiesce()
3968435257564: global: PseudoInst::quiesceSkip()
3968435264024: global: PseudoInst::quiesce()
3968436108023: global: PseudoInst::quiesceSkip()
3968436114483: global: PseudoInst::quiesce()
3968436174561: global: PseudoInst::quiesceSkip()
3968436181021: global: PseudoInst::quiesce()
3968436362870: global: PseudoInst::quiesceSkip()
3968436369330: global: PseudoInst::quiesce()
3968436815393: global: PseudoInst::quiesceSkip()
3968436821853: global: PseudoInst::quiesce()
3968436902926: global: PseudoInst::quiesceSkip()
3968436909386: global: PseudoInst::quiesce()
3968436931027: global: PseudoInst::quiesceSkip()
3968436937487: global: PseudoInst::quiesce()
3968438307653: global: PseudoInst::quiesceSkip()
3968438314113: global: PseudoInst::quiesce()
3968438512758: global: PseudoInst::quiesceSkip()
3968438519218: global: PseudoInst::quiesce()
3968438709465: global: PseudoInst::quiesceSkip()
3968438715925: global: PseudoInst::quiesce()
3968438913924: global: PseudoInst::quiesceSkip()
3968438920384: global: PseudoInst::quiesce()
3968439127427: global: PseudoInst::quiesceSkip()
3968439133887: global: PseudoInst::quiesce()
3968439261472: global: PseudoInst::quiesceSkip()
3968439267932: global: PseudoInst::quiesce()
3968439292157: global: PseudoInst::quiesceSkip()
3968439298617: global: PseudoInst::quiesce()
3968439810249: global: PseudoInst::quiesceSkip()
3968439816709: global: PseudoInst::quiesce()
3968439968842: global: PseudoInst::quiesceSkip()
3968439975302: global: PseudoInst::quiesce()
3968440125497: global: PseudoInst::quiesceSkip()
3968440131957: global: PseudoInst::quiesce()
3968440268263: global: PseudoInst::quiesceSkip()
3968440274723: global: PseudoInst::quiesce()
3968442236948: global: PseudoInst::quiesce()
3968476419715: global: PseudoInst::quiesceSkip()
3968476562481: global: PseudoInst::quiesceSkip()
3968481536035: global: PseudoInst::quiesceSkip()
3968482798642: global: PseudoInst::quiesceSkip()
3968493143686: global: PseudoInst::quiesceSkip()
3968536315220: global: PseudoInst::quiesceSkip()
3968545789133: global: PseudoInst::quiesceSkip()
3968548490059: global: PseudoInst::quiesce()
3968561253081: global: PseudoInst::quiesceSkip()
3968563852585: global: PseudoInst::quiesce()
3968564368416: global: PseudoInst::quiesce()
3968575509332: global: PseudoInst::quiesceSkip()
3968575638532: global: PseudoInst::quiesceSkip()
3968581692521: global: PseudoInst::quiesce()
3968598141619: global: PseudoInst::quiesceSkip()
3968598282124: global: PseudoInst::quiesceSkip()
3968623438333: global: PseudoInst::quiesceSkip()
3968623447377: global: PseudoInst::quiesce()
3968868404763: global: PseudoInst::quiesceSkip()
3968868530410: global: PseudoInst::quiesceSkip()
3968873166106: global: PseudoInst::quiesce()
3970341812222: global: PseudoInst::quiesceSkip()
3970341820943: global: PseudoInst::quiesce()
3970341974691: global: PseudoInst::quiesceSkip()
3970341983412: global: PseudoInst::quiesce()
3970342210481: global: PseudoInst::quiesce()
3970342452731: global: PseudoInst::quiesceSkip()
3970342459191: global: PseudoInst::quiesce()
3970342829995: global: PseudoInst::quiesceSkip()
3970342836455: global: PseudoInst::quiesce()
3970342912360: global: PseudoInst::quiesceSkip()
3970342918820: global: PseudoInst::quiesce()
3970343039945: global: PseudoInst::quiesceSkip()
3970343046405: global: PseudoInst::quiesce()
3970343667211: global: PseudoInst::quiesceSkip()
3970343676255: global: PseudoInst::quiesce()
3970343705648: global: PseudoInst::quiesceSkip()
3970343712108: global: PseudoInst::quiesce()
3970343977614: global: PseudoInst::quiesce()
3970345761220: global: PseudoInst::quiesceSkip()
3970347112652: global: PseudoInst::quiesceSkip()
3970348122673: global: PseudoInst::quiesce()
3970382683027: global: PseudoInst::quiesceSkip()
3970392111720: global: PseudoInst::quiesceSkip()
3970394275497: global: PseudoInst::quiesce()
3970434101397: global: PseudoInst::quiesce()
3970444306259: global: PseudoInst::quiesceSkip()
3970444432875: global: PseudoInst::quiesceSkip()
3970678191205: global: PseudoInst::quiesceSkip()
3970762668302: global: PseudoInst::quiesceSkip()
3970762794595: global: PseudoInst::quiesceSkip()
3970765482278: global: PseudoInst::quiesceSkip()
3970765738417: global: PseudoInst::quiesceSkip()
3970765747138: global: PseudoInst::quiesce()
3970766019427: global: PseudoInst::quiesce()
3970767001670: global: PseudoInst::quiesce()
3970767116335: global: PseudoInst::quiesceSkip()
3970806850180: global: PseudoInst::quiesceSkip()
3970816024995: global: PseudoInst::quiesceSkip()
3970817942969: global: PseudoInst::quiesce()
3970848669636: global: PseudoInst::quiesce()
3970858822172: global: PseudoInst::quiesceSkip()
3970858937160: global: PseudoInst::quiesceSkip()
3970990326454: global: PseudoInst::quiesceSkip()
3971065571565: global: PseudoInst::quiesceSkip()
3971067544126: global: PseudoInst::quiesceSkip()
3971072418842: global: PseudoInst::quiesceSkip()
3971073273177: global: PseudoInst::quiesceSkip()
3971219852515: global: PseudoInst::quiesceSkip()
3971271214683: global: PseudoInst::quiesceSkip()
3971272241177: global: PseudoInst::quiesceSkip()
3971276433394: global: PseudoInst::quiesceSkip()
3971277255429: global: PseudoInst::quiesceSkip()
3971349773451: global: PseudoInst::quiesceSkip()
3971349880687: global: PseudoInst::quiesceSkip()
3971352497956: global: PseudoInst::quiesceSkip()
3971353594218: global: PseudoInst::quiesceSkip()
3971354236342: global: PseudoInst::quiesce()
3971393365531: global: PseudoInst::quiesceSkip()
3971404200889: global: PseudoInst::quiesceSkip()
3971406186370: global: PseudoInst::quiesce()
3971434341634: global: PseudoInst::quiesce()
3971443180206: global: PseudoInst::quiesceSkip()
3971444527116: global: PseudoInst::quiesceSkip()
3971444645980: global: PseudoInst::quiesceSkip()
3971449779096: global: PseudoInst::quiesceSkip()
3971449787817: global: PseudoInst::quiesce()
3971449814949: global: PseudoInst::quiesce()
3971510977906: global: PseudoInst::quiesceSkip()
3971513017974: global: PseudoInst::quiesceSkip()
3971513026695: global: PseudoInst::quiesceSkip()
3971514697897: global: PseudoInst::quiesce()
3971516193387: global: PseudoInst::quiesce()
3971528187023: global: PseudoInst::quiesceSkip()
3971528203173: global: PseudoInst::quiesce()
3971528590773: global: PseudoInst::quiesceSkip()
3971528608215: global: PseudoInst::quiesceSkip()
3971528622750: global: PseudoInst::quiesce()
3971535375711: global: PseudoInst::quiesceSkip()
3971535500389: global: PseudoInst::quiesceSkip()
3971666778248: global: PseudoInst::quiesceSkip()
3971666880962: global: PseudoInst::quiesceSkip()
3971670230795: global: PseudoInst::quiesceSkip()
3971670948824: global: PseudoInst::quiesce()
3971671509229: global: PseudoInst::quiesceSkip()
3971710061863: global: PseudoInst::quiesceSkip()
3971725979626: global: PseudoInst::quiesceSkip()
3971727300373: global: PseudoInst::quiesce()
3971755936584: global: PseudoInst::quiesce()
3971772768760: global: PseudoInst::quiesceSkip()
3971772890531: global: PseudoInst::quiesceSkip()
3971790551525: global: PseudoInst::quiesceSkip()
3971790683309: global: PseudoInst::quiesceSkip()
3971795664292: global: PseudoInst::quiesce()
3972131924411: global: PseudoInst::quiesceSkip()
3972201990217: global: PseudoInst::quiesceSkip()
3972244047078: global: PseudoInst::quiesceSkip()
3972284984098: global: PseudoInst::quiesceSkip()
3972286458270: global: PseudoInst::quiesceSkip()
3972292120783: global: PseudoInst::quiesceSkip()
3972341722278: global: PseudoInst::quiesceSkip()
3972354120633: global: PseudoInst::quiesceSkip()
3972354129354: global: PseudoInst::quiesce()
3972354144535: global: PseudoInst::quiesce()
3972354205582: global: PseudoInst::quiesceSkip()
3972354219471: global: PseudoInst::quiesceSkip()
3972354234652: global: PseudoInst::quiesceSkip()
3972354241112: global: PseudoInst::quiesce()
3972354470119: global: PseudoInst::quiesceSkip()
3972354478840: global: PseudoInst::quiesce()
3972354515662: global: PseudoInst::quiesce()
3972354717860: global: PseudoInst::quiesceSkip()
3972354733041: global: PseudoInst::quiesce()
3972355097062: global: PseudoInst::quiesceSkip()
3972355103522: global: PseudoInst::quiesce()
3972408069385: global: PseudoInst::quiesceSkip()
3972408201492: global: PseudoInst::quiesceSkip()
3972412794552: global: PseudoInst::quiesceSkip()
3972414052960: global: PseudoInst::quiesceSkip()
3972428294676: global: PseudoInst::quiesceSkip()
3972442811911: global: PseudoInst::quiesce()
3972456564928: global: PseudoInst::quiesceSkip()
3972459776840: global: PseudoInst::quiesce()
3972462184159: global: PseudoInst::quiesceSkip()
3972471706522: global: PseudoInst::quiesceSkip()
3972484681755: global: PseudoInst::quiesceSkip()
3972484808371: global: PseudoInst::quiesceSkip()
3972487380420: global: PseudoInst::quiesce()
3972502677700: global: PseudoInst::quiesce()
3972512037917: global: PseudoInst::quiesceSkip()
3972512164533: global: PseudoInst::quiesceSkip()
3972525427882: global: PseudoInst::quiesceSkip()
3972525544162: global: PseudoInst::quiesceSkip()
3972585441605: global: PseudoInst::dumpresetstats(1000, 500000)
3972585441605: global: PseudoInst::dumpresetstats when is (curtick = 3972585441605 + (delay = 1000 * SimClock::Int::ns = 1000))
3972585441605: global: PseudoInst::dumpresetstats repeat is (period = 500000 * SimClock::Int::ns = 1000
3972585441605: global: PseudoInst::dumpresetstats when = 3972586441605 and repeat = 500000000
processing StatEvent : curtick is 3972586441605 scheduling next dumpevent after repeat = 500000000
3972597613860: global: PseudoInst::quiesceSkip()
3972597733693: global: PseudoInst::quiesceSkip()
3972600930101: global: PseudoInst::quiesceSkip()
3972602285086: global: PseudoInst::quiesceSkip()
3972608100701: global: PseudoInst::quiesceSkip()
3972648880743: global: PseudoInst::quiesceSkip()
3972648889464: global: PseudoInst::quiesce()
3972649007682: global: PseudoInst::quiesceSkip()
3972649016403: global: PseudoInst::quiesce()
3972649182748: global: PseudoInst::quiesceSkip()
3972649189208: global: PseudoInst::quiesce()
3972649269635: global: PseudoInst::quiesceSkip()
3972649276095: global: PseudoInst::quiesce()
3972649437918: global: PseudoInst::quiesceSkip()
3972649444378: global: PseudoInst::quiesce()
3972649704393: global: PseudoInst::quiesceSkip()
3972649710853: global: PseudoInst::quiesce()
3972649791280: global: PseudoInst::quiesceSkip()
3972649797740: global: PseudoInst::quiesce()
3972650113634: global: PseudoInst::quiesceSkip()
3972650120094: global: PseudoInst::quiesce()
3972650373326: global: PseudoInst::quiesceSkip()
3972650379786: global: PseudoInst::quiesce()
3972650460536: global: PseudoInst::quiesceSkip()
3972650466996: global: PseudoInst::quiesce()
3972650667579: global: PseudoInst::quiesceSkip()
3972650674039: global: PseudoInst::quiesce()
3972650920811: global: PseudoInst::quiesceSkip()
3972650927271: global: PseudoInst::quiesce()
3972651000915: global: PseudoInst::quiesceSkip()
3972651007375: global: PseudoInst::quiesce()
3972651373980: global: PseudoInst::quiesceSkip()
3972651380440: global: PseudoInst::quiesce()
3972651646915: global: PseudoInst::quiesceSkip()
3972651653375: global: PseudoInst::quiesce()
3972651733802: global: PseudoInst::quiesceSkip()
3972651740262: global: PseudoInst::quiesce()
3972651979928: global: PseudoInst::quiesceSkip()
3972651986388: global: PseudoInst::quiesce()
3972652331998: global: PseudoInst::quiesceSkip()
3972652338458: global: PseudoInst::quiesce()
3972652423084: global: PseudoInst::quiesceSkip()
3972652429544: global: PseudoInst::quiesce()
3972652580062: global: PseudoInst::quiesceSkip()
3972652586522: global: PseudoInst::quiesce()
3972652861395: global: PseudoInst::quiesceSkip()
3972652867855: global: PseudoInst::quiesce()
3972652948282: global: PseudoInst::quiesceSkip()
3972652954742: global: PseudoInst::quiesce()
3972653276127: global: PseudoInst::quiesceSkip()
3972653282587: global: PseudoInst::quiesce()
3972653598158: global: PseudoInst::quiesceSkip()
3972653604618: global: PseudoInst::quiesce()
3972653621091: global: PseudoInst::quiesceSkip()
3972653627551: global: PseudoInst::quiesce()
3972653646608: global: PseudoInst::quiesceSkip()
3972653653068: global: PseudoInst::quiesce()
3972653681815: global: PseudoInst::quiesceSkip()
3972653688275: global: PseudoInst::quiesce()
3972654002877: global: PseudoInst::quiesceSkip()
3972654009337: global: PseudoInst::quiesce()
3972654283887: global: PseudoInst::quiesceSkip()
3972654290347: global: PseudoInst::quiesce()
3972654370774: global: PseudoInst::quiesceSkip()
3972654377234: global: PseudoInst::quiesce()
3972654725428: global: PseudoInst::quiesceSkip()
3972654731888: global: PseudoInst::quiesce()
3972654984797: global: PseudoInst::quiesceSkip()
3972654991257: global: PseudoInst::quiesce()
3972655071684: global: PseudoInst::quiesceSkip()
3972655078144: global: PseudoInst::quiesce()
3972657593345: global: PseudoInst::quiesceSkip()
3972657599805: global: PseudoInst::quiesce()
3972657902779: global: PseudoInst::quiesceSkip()
3972657909239: global: PseudoInst::quiesce()
3972657932818: global: PseudoInst::quiesceSkip()
3972657939278: global: PseudoInst::quiesce()
3972657967702: global: PseudoInst::quiesceSkip()
3972657974162: global: PseudoInst::quiesce()
3972657989989: global: PseudoInst::quiesceSkip()
3972657996449: global: PseudoInst::quiesce()
3972658150843: global: PseudoInst::quiesceSkip()
3972658157303: global: PseudoInst::quiesce()
3972658421194: global: PseudoInst::quiesceSkip()
3972658427654: global: PseudoInst::quiesce()
3972658501298: global: PseudoInst::quiesceSkip()
3972658507758: global: PseudoInst::quiesce()
3972659262932: global: PseudoInst::quiesceSkip()
3972659269392: global: PseudoInst::quiesce()
3972659586255: global: PseudoInst::quiesceSkip()
3972659592715: global: PseudoInst::quiesce()
3972659673142: global: PseudoInst::quiesceSkip()
3972659679602: global: PseudoInst::quiesce()
3972660521986: global: PseudoInst::quiesceSkip()
3972660528446: global: PseudoInst::quiesce()
3972660786846: global: PseudoInst::quiesceSkip()
3972660793306: global: PseudoInst::quiesce()
3972660874056: global: PseudoInst::quiesceSkip()
3972660880516: global: PseudoInst::quiesce()
3972662203524: global: PseudoInst::quiesceSkip()
3972662209984: global: PseudoInst::quiesce()
3972662234209: global: PseudoInst::quiesceSkip()
3972662240669: global: PseudoInst::quiesce()
3972662811087: global: PseudoInst::quiesceSkip()
3972662817547: global: PseudoInst::quiesce()
3972663112446: global: PseudoInst::quiesceSkip()
3972663118906: global: PseudoInst::quiesce()
3972663192550: global: PseudoInst::quiesceSkip()
3972663199010: global: PseudoInst::quiesce()
3972666452589: global: PseudoInst::quiesceSkip()
3972666459049: global: PseudoInst::quiesce()
3972666483274: global: PseudoInst::quiesceSkip()
3972666489734: global: PseudoInst::quiesce()
3972668165135: global: PseudoInst::quiesceSkip()
3972668171595: global: PseudoInst::quiesce()
3972668455189: global: PseudoInst::quiesceSkip()
3972668461649: global: PseudoInst::quiesce()
3972668542399: global: PseudoInst::quiesceSkip()
3972668548859: global: PseudoInst::quiesce()
3972668700023: global: PseudoInst::quiesceSkip()
3972668706483: global: PseudoInst::quiesce()
3972668971343: global: PseudoInst::quiesceSkip()
3972668977803: global: PseudoInst::quiesce()
3972669058553: global: PseudoInst::quiesceSkip()
3972669065013: global: PseudoInst::quiesce()
3972670312439: global: PseudoInst::quiesceSkip()
3972670318899: global: PseudoInst::quiesce()
3972670590865: global: PseudoInst::quiesceSkip()
3972670597325: global: PseudoInst::quiesce()
3972670682274: global: PseudoInst::quiesceSkip()
3972670688734: global: PseudoInst::quiesce()
3972670708114: global: PseudoInst::quiesceSkip()
3972670714574: global: PseudoInst::quiesce()
3972670738799: global: PseudoInst::quiesceSkip()
3972670745259: global: PseudoInst::quiesce()
3972670839252: global: PseudoInst::quiesceSkip()
3972670845712: global: PseudoInst::quiesce()
3972671103143: global: PseudoInst::quiesceSkip()
3972671109603: global: PseudoInst::quiesce()
3972671190030: global: PseudoInst::quiesceSkip()
3972671196490: global: PseudoInst::quiesce()
3972671369941: global: PseudoInst::quiesceSkip()
3972671376401: global: PseudoInst::quiesce()
3972671633832: global: PseudoInst::quiesceSkip()
3972671640292: global: PseudoInst::quiesce()
3972671713936: global: PseudoInst::quiesceSkip()
3972671720396: global: PseudoInst::quiesce()
3972671871560: global: PseudoInst::quiesceSkip()
3972671878020: global: PseudoInst::quiesce()
3972672135774: global: PseudoInst::quiesceSkip()
3972672142234: global: PseudoInst::quiesce()
3972672222661: global: PseudoInst::quiesceSkip()
3972672229121: global: PseudoInst::quiesce()
3972672660972: global: PseudoInst::quiesceSkip()
3972672667432: global: PseudoInst::quiesce()
3972672691657: global: PseudoInst::quiesceSkip()
3972672698117: global: PseudoInst::quiesce()
3972734379812: global: PseudoInst::quiesceSkip()
3972763141670: global: PseudoInst::quiesceSkip()
3972766049639: global: PseudoInst::quiesce()
3972778945414: global: PseudoInst::quiesceSkip()
3972779062663: global: PseudoInst::quiesceSkip()
3972782048798: global: PseudoInst::quiesceSkip()
3972782057519: global: PseudoInst::quiesce()
3972782107907: global: PseudoInst::quiesceSkip()
3972782120181: global: PseudoInst::quiesceSkip()
3972782126641: global: PseudoInst::quiesce()
3972782468052: global: PseudoInst::quiesceSkip()
3972782866634: global: PseudoInst::quiesceSkip()
3972782875355: global: PseudoInst::quiesce()
3972782951260: global: PseudoInst::quiesceSkip()
3972782957720: global: PseudoInst::quiesce()
3972783031364: global: PseudoInst::quiesceSkip()
3972783037824: global: PseudoInst::quiesceSkip()
3972783051713: global: PseudoInst::quiesce()
3972783178652: global: PseudoInst::quiesceSkip()
3972783185112: global: PseudoInst::quiesce()
3972784014576: global: PseudoInst::quiesce()
3972784620524: global: PseudoInst::quiesceSkip()
3972796865131: global: PseudoInst::quiesce()
3972810304192: global: PseudoInst::quiesceSkip()
3972810432423: global: PseudoInst::quiesceSkip()
3972822521021: global: PseudoInst::quiesceSkip()
3972832399653: global: PseudoInst::quiesceSkip()
3972840430402: global: PseudoInst::quiesceSkip()
3972871555974: global: PseudoInst::quiesce()
3972882023758: global: PseudoInst::quiesceSkip()
3972882147790: global: PseudoInst::quiesceSkip()
3973037165180: global: PseudoInst::quiesce()
processing StatEvent : curtick is 3973086441605 scheduling next dumpevent after repeat = 500000000
3973117182293: global: PseudoInst::quiesceSkip()
3973189073695: global: PseudoInst::quiesceSkip()
3973189201603: global: PseudoInst::quiesceSkip()
3973192104727: global: PseudoInst::quiesceSkip()
3973192113448: global: PseudoInst::quiesce()
3973192611837: global: PseudoInst::quiesceSkip()
3973192974243: global: PseudoInst::quiesceSkip()
3973192982964: global: PseudoInst::quiesce()
3973193193883: global: PseudoInst::quiesce()
3973194182909: global: PseudoInst::quiesce()
3973194577292: global: PseudoInst::quiesceSkip()
3973250972769: global: PseudoInst::quiesceSkip()
3973267991316: global: PseudoInst::quiesceSkip()
3973292792871: global: PseudoInst::quiesce()
3973303780685: global: PseudoInst::quiesceSkip()
3973303897288: global: PseudoInst::quiesceSkip()
3973498495744: global: PseudoInst::quiesceSkip()
3973499684061: global: PseudoInst::quiesceSkip()
3973504194110: global: PseudoInst::quiesceSkip()
3973505038109: global: PseudoInst::quiesceSkip()
processing StatEvent : curtick is 3973586441605 scheduling next dumpevent after repeat = 500000000
3973669282640: global: PseudoInst::quiesceSkip()
3973670314302: global: PseudoInst::quiesceSkip()
3973674456454: global: PseudoInst::quiesceSkip()
3973675274613: global: PseudoInst::quiesceSkip()
3973742118494: global: PseudoInst::quiesceSkip()
3973742235420: global: PseudoInst::quiesceSkip()
3973745147588: global: PseudoInst::quiesceSkip()
3973746560390: global: PseudoInst::quiesceSkip()
3973746855935: global: PseudoInst::quiesce()
3973789137927: global: PseudoInst::quiesceSkip()
3973808775358: global: PseudoInst::quiesceSkip()
3973854483411: global: PseudoInst::quiesce()
3973870999047: global: PseudoInst::quiesceSkip()
3973871128570: global: PseudoInst::quiesceSkip()
processing StatEvent : curtick is 3974086441605 scheduling next dumpevent after repeat = 500000000
3974134474346: global: PseudoInst::quiesceSkip()
3974134602577: global: PseudoInst::quiesceSkip()
3974137450145: global: PseudoInst::quiesceSkip()
3974137876828: global: PseudoInst::quiesceSkip()
3974138898154: global: PseudoInst::quiesceSkip()
3974139142988: global: PseudoInst::quiesce()
3974182872666: global: PseudoInst::quiesceSkip()
3974195406035: global: PseudoInst::quiesceSkip()
3974213775368: global: PseudoInst::quiesceSkip()
3974213784089: global: PseudoInst::quiesce()
3974244853459: global: PseudoInst::quiesce()
3974257777981: global: PseudoInst::quiesceSkip()
3974257902659: global: PseudoInst::quiesceSkip()
3974553683772: global: PseudoInst::quiesceSkip()
processing StatEvent : curtick is 3974586441605 scheduling next dumpevent after repeat = 500000000
3974610515299: global: PseudoInst::quiesceSkip()
3974649148683: global: PseudoInst::quiesceSkip()
3974690307604: global: PseudoInst::quiesce()
3974742758282: global: PseudoInst::quiesceSkip()
3974742882637: global: PseudoInst::quiesceSkip()
3974747936618: global: PseudoInst::quiesceSkip()
3974749228618: global: PseudoInst::quiesceSkip()
3974796180221: global: PseudoInst::quiesceSkip()
3974807118616: global: PseudoInst::quiesceSkip()
3974809536917: global: PseudoInst::quiesce()
3974839306212: global: PseudoInst::quiesce()
3974850126389: global: PseudoInst::quiesceSkip()
3974850246868: global: PseudoInst::quiesceSkip()
