gem5 Simulator System.  http://gem5.org
gem5 is copyrighted software; use the --copyright option for details.

gem5 compiled Apr 11 2015 13:16:45
gem5 started Apr 11 2015 13:54:42
gem5 executing on bigbird
command line: ./build/ARM/gem5.opt --debug-flags=PseudoInst configs/example/haswell.py --machine-type=VExpress_EMM --dtb-filename=vexpress-v2p-ca15-tc1-gem5_dvfs_per_core_4cpus.dtb --kernel=vmlinux.ondemand95.e1000 --mem-size=2048MB --link-delay=25us --switch-link-delay=15us --link-delay-var=0ns --link-speed=230Mbps --tcp-speed=160Mbps --udp-speed=160Mbps --no-ip-speed=160Mbps --link-rate-scale=2 --link-delay-opt=47us --link-delay-queue=47us --link-retry-time=75us --nic-queue-th=50ms --sys-clock=2GHz --cpu-clock=1GHz --num-cpus=4 --tcp-retry-speed=1Gbps --tcp-process-speed=180Mbps --udp-retry-speed=160Mbps --no-ip-retry-speed=160Mbps --tcp-jmp-delay0=55us --tcp-jmp-delay1=130us --tcp-jmp-size0=131 --tcp-jmp-size1=323 --tap-first-delay=1s --checkpoint-restore=1 --eth --cpu-type=arm_detailed --caches --checkpoint-dir=/research/ljindal/alian/gem5/ckptdir/WORKING_PING_NPB_CKPT_5NODES/tux0 --sync-host=128.104.189.79 --mac=00:90:00:00:00:00 --tap-port=3500 --script=tux0.sh --disk-image=/research/ljindal/alian/gem5/disks/NPB/tux0.img
Global frequency set at 1000000000000 ticks per second
warn: DRAM device capacity (8192 Mbytes) does not match the address range assigned (2048 Mbytes)
info: kernel located at: /users/ljindal/pd-gem5/binaries/vmlinux.ondemand95.e1000
      0: system.cpu0.isa: ISA system set to: 0x583f680 0x583f680
      0: system.cpu1.isa: ISA system set to: 0x583f680 0x583f680
      0: system.cpu2.isa: ISA system set to: 0x583f680 0x583f680
      0: system.cpu3.isa: ISA system set to: 0x583f680 0x583f680
lo= 127.0.0.1
eth0= 128.104.181.93
tapport= 3500
Listening for tap connection on port 3500
Listening for system connection on port 5900
Listening for system connection on port 3456
      0: system.switch_cpus0.isa: ISA system set to: 0x583f680 0x583f680
      0: system.switch_cpus1.isa: ISA system set to: 0x583f680 0x583f680
      0: system.switch_cpus2.isa: ISA system set to: 0x583f680 0x583f680
      0: system.switch_cpus3.isa: ISA system set to: 0x583f680 0x583f680
0: system.remote_gdb.listener: listening for remote gdb #0 on port 7000
0: system.remote_gdb.listener: listening for remote gdb #1 on port 7002
0: system.remote_gdb.listener: listening for remote gdb #2 on port 7003
0: system.remote_gdb.listener: listening for remote gdb #3 on port 7004
Switch at curTick count:10000
Switched CPUS @ tick 3966960010000
switching cpus
**** REAL SIMULATION ****
warn: 	instruction 'mcr dcisw' unimplemented
warn: 	instruction 'mcr icialluis' unimplemented
3966980983656: global: PseudoInst::quiesceSkip()
3966981616413: global: PseudoInst::quiesceSkip()
3966997138501: global: PseudoInst::quiesceSkip()
3966997147222: global: PseudoInst::quiesce()
3966998981216: global: PseudoInst::quiesceSkip()
3967000584265: global: PseudoInst::quiesceSkip()
3967000592986: global: PseudoInst::quiesce()
3967000640790: global: PseudoInst::quiesceSkip()
3967000653064: global: PseudoInst::quiesceSkip()
3967000659524: global: PseudoInst::quiesce()
3967000829422: global: PseudoInst::quiesceSkip()
3967000835882: global: PseudoInst::quiesce()
3967001095251: global: PseudoInst::quiesce()
3967001163081: global: PseudoInst::quiesceSkip()
3967001169541: global: PseudoInst::quiesce()
3967001427618: global: PseudoInst::quiesceSkip()
3967001434078: global: PseudoInst::quiesce()
3967001498355: global: PseudoInst::quiesceSkip()
3967001504815: global: PseudoInst::quiesce()
3967005304587: global: PseudoInst::quiesce()
3967006558150: global: PseudoInst::quiesceSkip()
3967027434286: global: PseudoInst::quiesceSkip()
3967074451135: global: PseudoInst::quiesce()
warn: 	instruction 'mcr dccimvac' unimplemented
3967111669133: global: PseudoInst::quiesceSkip()
3967112105183: global: PseudoInst::quiesceSkip()
warn: 	instruction 'mcr bpiall' unimplemented
3967151296065: global: PseudoInst::quiesce()
3967277925308: global: PseudoInst::quiesceSkip()
3967277934029: global: PseudoInst::quiesce()
3967278147532: global: PseudoInst::quiesceSkip()
3967278156253: global: PseudoInst::quiesce()
3967278171434: global: PseudoInst::quiesceSkip()
3967278177894: global: PseudoInst::quiesce()
3967278540623: global: PseudoInst::quiesceSkip()
3967278547083: global: PseudoInst::quiesce()
3967278893985: global: PseudoInst::quiesceSkip()
3967278906259: global: PseudoInst::quiesceSkip()
3967278912719: global: PseudoInst::quiesce()
3967279114271: global: PseudoInst::quiesceSkip()
3967279120731: global: PseudoInst::quiesce()
3967279789018: global: PseudoInst::quiesceSkip()
3967279795478: global: PseudoInst::quiesce()
3967279964084: global: PseudoInst::quiesceSkip()
3967279970544: global: PseudoInst::quiesce()
3967280251231: global: PseudoInst::quiesceSkip()
3967280257691: global: PseudoInst::quiesce()
3967280405625: global: PseudoInst::quiesceSkip()
3967280412085: global: PseudoInst::quiesce()
3967280937606: global: PseudoInst::quiesceSkip()
3967280944066: global: PseudoInst::quiesce()
3967281072943: global: PseudoInst::quiesceSkip()
3967281079403: global: PseudoInst::quiesce()
3967282739623: global: PseudoInst::quiesceSkip()
3967282746083: global: PseudoInst::quiesce()
3967282767724: global: PseudoInst::quiesceSkip()
3967282774184: global: PseudoInst::quiesce()
3967282808422: global: PseudoInst::quiesceSkip()
3967282814882: global: PseudoInst::quiesce()
3967285135960: global: PseudoInst::quiesceSkip()
3967285142420: global: PseudoInst::quiesce()
3967285216710: global: PseudoInst::quiesceSkip()
3967285223170: global: PseudoInst::quiesce()
3967285488030: global: PseudoInst::quiesceSkip()
3967285494490: global: PseudoInst::quiesce()
3967285690228: global: PseudoInst::quiesceSkip()
3967285696688: global: PseudoInst::quiesce()
3967286052311: global: PseudoInst::quiesceSkip()
3967286058771: global: PseudoInst::quiesce()
3967286139198: global: PseudoInst::quiesceSkip()
3967286145658: global: PseudoInst::quiesce()
3967286986104: global: PseudoInst::quiesceSkip()
3967286992564: global: PseudoInst::quiesce()
3967287056195: global: PseudoInst::quiesceSkip()
3967287062655: global: PseudoInst::quiesce()
3967287091079: global: PseudoInst::quiesceSkip()
3967287097539: global: PseudoInst::quiesce()
3967287266791: global: PseudoInst::quiesceSkip()
3967287273251: global: PseudoInst::quiesce()
3967287353678: global: PseudoInst::quiesceSkip()
3967287360138: global: PseudoInst::quiesce()
3967289716423: global: PseudoInst::quiesceSkip()
3967289722883: global: PseudoInst::quiesce()
3967289997433: global: PseudoInst::quiesceSkip()
3967290003893: global: PseudoInst::quiesce()
3967290084320: global: PseudoInst::quiesceSkip()
3967290090780: global: PseudoInst::quiesce()
3967291329808: global: PseudoInst::quiesceSkip()
3967291336268: global: PseudoInst::quiesce()
3967291360493: global: PseudoInst::quiesceSkip()
3967291366953: global: PseudoInst::quiesce()
3967291807202: global: PseudoInst::quiesceSkip()
3967291813662: global: PseudoInst::quiesce()
3967292547841: global: PseudoInst::quiesceSkip()
3967292554301: global: PseudoInst::quiesce()
3967292713217: global: PseudoInst::quiesceSkip()
3967292719677: global: PseudoInst::quiesce()
3967293001979: global: PseudoInst::quiesceSkip()
3967293008439: global: PseudoInst::quiesce()
3967293056566: global: PseudoInst::quiesceSkip()
3967293063026: global: PseudoInst::quiesce()
3967293112768: global: PseudoInst::quiesceSkip()
3967293119228: global: PseudoInst::quiesce()
3967293987452: global: PseudoInst::quiesceSkip()
3967293993912: global: PseudoInst::quiesce()
3967294022336: global: PseudoInst::quiesceSkip()
3967294028796: global: PseudoInst::quiesce()
3967296838250: global: PseudoInst::quiesce()
3967305618359: global: PseudoInst::quiesceSkip()
3967305624819: global: PseudoInst::quiesce()
3967305895816: global: PseudoInst::quiesceSkip()
3967305902276: global: PseudoInst::quiesce()
3967305973982: global: PseudoInst::quiesceSkip()
3967305980442: global: PseudoInst::quiesce()
3967308206235: global: PseudoInst::quiesceSkip()
3967308212695: global: PseudoInst::quiesce()
3967308468834: global: PseudoInst::quiesceSkip()
3967308475294: global: PseudoInst::quiesce()
3967308556044: global: PseudoInst::quiesceSkip()
3967308562504: global: PseudoInst::quiesce()
3967310237259: global: PseudoInst::quiesceSkip()
3967310243719: global: PseudoInst::quiesce()
3967310262776: global: PseudoInst::quiesceSkip()
3967310269236: global: PseudoInst::quiesce()
3967310299275: global: PseudoInst::quiesceSkip()
3967310305735: global: PseudoInst::quiesce()
3967311067046: global: PseudoInst::quiesceSkip()
3967311073506: global: PseudoInst::quiesce()
3967311326738: global: PseudoInst::quiesceSkip()
3967311333198: global: PseudoInst::quiesce()
3967311471119: global: PseudoInst::quiesceSkip()
3967311477579: global: PseudoInst::quiesce()
3967311862272: global: PseudoInst::quiesceSkip()
3967311868732: global: PseudoInst::quiesce()
3967312181719: global: PseudoInst::quiesceSkip()
3967312188179: global: PseudoInst::quiesce()
3967312339666: global: PseudoInst::quiesceSkip()
3967312346126: global: PseudoInst::quiesce()
3967312462083: global: PseudoInst::quiesceSkip()
3967312468543: global: PseudoInst::quiesce()
3967312492768: global: PseudoInst::quiesceSkip()
3967312499228: global: PseudoInst::quiesce()
3967312618738: global: PseudoInst::quiesceSkip()
3967312625198: global: PseudoInst::quiesce()
3967312874877: global: PseudoInst::quiesceSkip()
3967312881337: global: PseudoInst::quiesce()
3967312962087: global: PseudoInst::quiesceSkip()
3967312968547: global: PseudoInst::quiesce()
3967313449494: global: PseudoInst::quiesceSkip()
3967313455954: global: PseudoInst::quiesce()
3967315250542: global: PseudoInst::quiesce()
3967412883752: global: PseudoInst::quiesceSkip()
3967494133756: global: PseudoInst::quiesceSkip()
3967497006841: global: PseudoInst::quiesceSkip()
3967500280123: global: PseudoInst::quiesce()
3967517950807: global: PseudoInst::quiesceSkip()
3967518068702: global: PseudoInst::quiesceSkip()
3967521453096: global: PseudoInst::quiesceSkip()
3967521756393: global: PseudoInst::quiesceSkip()
3967521765114: global: PseudoInst::quiesce()
3967522674359: global: PseudoInst::quiesce()
3967523210539: global: PseudoInst::quiesceSkip()
3967565604935: global: PseudoInst::quiesce()
3967577108580: global: PseudoInst::quiesceSkip()
3967577237134: global: PseudoInst::quiesceSkip()
3967595063181: global: PseudoInst::quiesceSkip()
3967608705086: global: PseudoInst::quiesceSkip()
3967608713807: global: PseudoInst::quiesce()
3967611502266: global: PseudoInst::quiesceSkip()
3967613552993: global: PseudoInst::quiesce()
3967647162112: global: PseudoInst::quiesce()
3967681329375: global: PseudoInst::quiesceSkip()
3967681470849: global: PseudoInst::quiesceSkip()
3967761341966: global: PseudoInst::quiesceSkip()
3967761350687: global: PseudoInst::quiesce()
3967761372974: global: PseudoInst::quiesceSkip()
3967761379434: global: PseudoInst::quiesce()
3967923250561: global: PseudoInst::readfile(0x7efbfbd8, 0x40000, 0x0)
3967930573294: global: PseudoInst::readfile(0x7efbfbd8, 0x40000, 0x228)
3967955825111: global: PseudoInst::quiesceSkip()
3967955937515: global: PseudoInst::quiesceSkip()
3967958835794: global: PseudoInst::quiesceSkip()
3967959099039: global: PseudoInst::quiesceSkip()
3967959107760: global: PseudoInst::quiesce()
3967959360023: global: PseudoInst::quiesce()
3967960357770: global: PseudoInst::quiesce()
3967960486970: global: PseudoInst::quiesceSkip()
3967965576804: global: PseudoInst::quiesceSkip()
3968039423648: global: PseudoInst::quiesceSkip()
3968101779767: global: PseudoInst::quiesceSkip()
3968112695229: global: PseudoInst::quiesceSkip()
3968115456233: global: PseudoInst::quiesce()
3968119448513: global: PseudoInst::quiesce()
3968131126901: global: PseudoInst::quiesceSkip()
3968131246088: global: PseudoInst::quiesceSkip()
3968184415441: global: PseudoInst::quiesceSkip()
3968236066694: global: PseudoInst::quiesceSkip()
3968396395819: global: PseudoInst::quiesceSkip()
3968396516298: global: PseudoInst::quiesceSkip()
3968399330920: global: PseudoInst::quiesceSkip()
3968399644230: global: PseudoInst::quiesceSkip()
3968399652951: global: PseudoInst::quiesce()
3968400944305: global: PseudoInst::quiesceSkip()
3968401364528: global: PseudoInst::quiesce()
3968404994725: global: PseudoInst::quiesceSkip()
3968431186472: global: PseudoInst::quiesceSkip()
3968431195193: global: PseudoInst::quiesce()
3968433168723: global: PseudoInst::quiesceSkip()
3968433175183: global: PseudoInst::quiesce()
3968433691983: global: PseudoInst::quiesceSkip()
3968433698443: global: PseudoInst::quiesce()
3968433836364: global: PseudoInst::quiesceSkip()
3968433842824: global: PseudoInst::quiesce()
3968434606396: global: PseudoInst::quiesceSkip()
3968434612856: global: PseudoInst::quiesce()
3968435032110: global: PseudoInst::quiesceSkip()
3968435038570: global: PseudoInst::quiesce()
3968435118997: global: PseudoInst::quiesceSkip()
3968435125457: global: PseudoInst::quiesce()
3968435663252: global: PseudoInst::quiesceSkip()
3968435669712: global: PseudoInst::quiesce()
3968435688769: global: PseudoInst::quiesceSkip()
3968435695229: global: PseudoInst::quiesce()
3968435723976: global: PseudoInst::quiesceSkip()
3968435730436: global: PseudoInst::quiesce()
3968436165194: global: PseudoInst::quiesceSkip()
3968436171654: global: PseudoInst::quiesce()
3968436252081: global: PseudoInst::quiesceSkip()
3968436258541: global: PseudoInst::quiesce()
3968437918115: global: PseudoInst::quiesceSkip()
3968437924575: global: PseudoInst::quiesce()
3968437984653: global: PseudoInst::quiesceSkip()
3968437991113: global: PseudoInst::quiesce()
3968438159396: global: PseudoInst::quiesceSkip()
3968438165856: global: PseudoInst::quiesce()
3968438613211: global: PseudoInst::quiesceSkip()
3968438619671: global: PseudoInst::quiesce()
3968438703974: global: PseudoInst::quiesceSkip()
3968438710434: global: PseudoInst::quiesce()
3968438732075: global: PseudoInst::quiesceSkip()
3968438738535: global: PseudoInst::quiesce()
3968439739189: global: PseudoInst::quiesceSkip()
3968439745649: global: PseudoInst::quiesce()
3968439769874: global: PseudoInst::quiesceSkip()
3968439776334: global: PseudoInst::quiesce()
3968440091905: global: PseudoInst::quiesceSkip()
3968440098365: global: PseudoInst::quiesce()
3968440305085: global: PseudoInst::quiesceSkip()
3968440311545: global: PseudoInst::quiesce()
3968440503084: global: PseudoInst::quiesceSkip()
3968440509544: global: PseudoInst::quiesce()
3968440703344: global: PseudoInst::quiesceSkip()
3968440709804: global: PseudoInst::quiesce()
3968440900697: global: PseudoInst::quiesceSkip()
3968440907157: global: PseudoInst::quiesce()
3968442717572: global: PseudoInst::quiesce()
3968477994986: global: PseudoInst::quiesceSkip()
3968478133230: global: PseudoInst::quiesceSkip()
3968482838694: global: PseudoInst::quiesceSkip()
3968484122296: global: PseudoInst::quiesceSkip()
3968493980256: global: PseudoInst::quiesceSkip()
3968537830090: global: PseudoInst::quiesceSkip()
3968547330489: global: PseudoInst::quiesceSkip()
3968550102475: global: PseudoInst::quiesce()
3968561834481: global: PseudoInst::quiesceSkip()
3968564431401: global: PseudoInst::quiesce()
3968564754078: global: PseudoInst::quiesce()
3968575860756: global: PseudoInst::quiesceSkip()
3968575985434: global: PseudoInst::quiesceSkip()
3968583726129: global: PseudoInst::quiesce()
3968600482723: global: PseudoInst::quiesceSkip()
3968600617737: global: PseudoInst::quiesceSkip()
3968607165916: global: PseudoInst::quiesceSkip()
3968607183035: global: PseudoInst::quiesceSkip()
3968607199831: global: PseudoInst::quiesce()
3968870367957: global: PseudoInst::quiesceSkip()
3968870495865: global: PseudoInst::quiesceSkip()
3968875080850: global: PseudoInst::quiesce()
3970341852597: global: PseudoInst::quiesceSkip()
3970341861318: global: PseudoInst::quiesce()
3970341970492: global: PseudoInst::quiesceSkip()
3970341982766: global: PseudoInst::quiesceSkip()
3970341989226: global: PseudoInst::quiesce()
3970342262484: global: PseudoInst::quiesce()
3970342466297: global: PseudoInst::quiesceSkip()
3970342472757: global: PseudoInst::quiesce()
3970342815460: global: PseudoInst::quiesceSkip()
3970342821920: global: PseudoInst::quiesce()
3970342897825: global: PseudoInst::quiesceSkip()
3970342904285: global: PseudoInst::quiesce()
3970343082904: global: PseudoInst::quiesceSkip()
3970343089364: global: PseudoInst::quiesce()
3970343692405: global: PseudoInst::quiesceSkip()
3970343701126: global: PseudoInst::quiesce()
3970343728258: global: PseudoInst::quiesceSkip()
3970343743116: global: PseudoInst::quiesceSkip()
3970343751837: global: PseudoInst::quiesce()
3970343991503: global: PseudoInst::quiesce()
3970345789967: global: PseudoInst::quiesceSkip()
3970347132355: global: PseudoInst::quiesceSkip()
3970348045799: global: PseudoInst::quiesce()
3970382819010: global: PseudoInst::quiesceSkip()
3970392201837: global: PseudoInst::quiesceSkip()
3970394382087: global: PseudoInst::quiesce()
3970434038735: global: PseudoInst::quiesce()
3970444222925: global: PseudoInst::quiesceSkip()
3970444342112: global: PseudoInst::quiesceSkip()
3970677604637: global: PseudoInst::quiesceSkip()
3970761452853: global: PseudoInst::quiesceSkip()
3970761577854: global: PseudoInst::quiesceSkip()
3970764220963: global: PseudoInst::quiesceSkip()
3970764529105: global: PseudoInst::quiesceSkip()
3970764537826: global: PseudoInst::quiesce()
3970765362768: global: PseudoInst::quiesceSkip()
3970765845007: global: PseudoInst::quiesce()
3970804617927: global: PseudoInst::quiesceSkip()
3970813772393: global: PseudoInst::quiesceSkip()
3970815734295: global: PseudoInst::quiesce()
3970846515549: global: PseudoInst::quiesce()
3970856648382: global: PseudoInst::quiesceSkip()
3970856764985: global: PseudoInst::quiesceSkip()
3970993203092: global: PseudoInst::quiesceSkip()
3971062680392: global: PseudoInst::quiesceSkip()
3971064866779: global: PseudoInst::quiesceSkip()
3971069712748: global: PseudoInst::quiesceSkip()
3971070532845: global: PseudoInst::quiesceSkip()
3971222799890: global: PseudoInst::quiesceSkip()
3971267297662: global: PseudoInst::quiesceSkip()
3971268357102: global: PseudoInst::quiesceSkip()
3971272478582: global: PseudoInst::quiesceSkip()
3971273291896: global: PseudoInst::quiesceSkip()
3971345723677: global: PseudoInst::quiesceSkip()
3971345829621: global: PseudoInst::quiesceSkip()
3971348415236: global: PseudoInst::quiesceSkip()
3971349509560: global: PseudoInst::quiesceSkip()
3971350184953: global: PseudoInst::quiesce()
3971389844185: global: PseudoInst::quiesceSkip()
3971400782257: global: PseudoInst::quiesceSkip()
3971402813927: global: PseudoInst::quiesce()
3971430977589: global: PseudoInst::quiesce()
3971433562235: global: PseudoInst::quiesceSkip()
3971441188265: global: PseudoInst::quiesceSkip()
3971441307452: global: PseudoInst::quiesceSkip()
3971501554704: global: PseudoInst::quiesceSkip()
3971503610276: global: PseudoInst::quiesceSkip()
3971503618997: global: PseudoInst::quiesce()
3971505483030: global: PseudoInst::quiesce()
3971506807653: global: PseudoInst::quiesce()
3971526012264: global: PseudoInst::quiesceSkip()
3971526138880: global: PseudoInst::quiesceSkip()
3971662872855: global: PseudoInst::quiesceSkip()
3971662969755: global: PseudoInst::quiesceSkip()
3971666307637: global: PseudoInst::quiesceSkip()
3971667098987: global: PseudoInst::quiesce()
3971667585425: global: PseudoInst::quiesceSkip()
3971706248525: global: PseudoInst::quiesceSkip()
3971722591033: global: PseudoInst::quiesceSkip()
3971723916625: global: PseudoInst::quiesce()
3971752526350: global: PseudoInst::quiesce()
3971769130488: global: PseudoInst::quiesceSkip()
3971769252582: global: PseudoInst::quiesceSkip()
3971775202888: global: PseudoInst::quiesceSkip()
3971775222914: global: PseudoInst::quiesce()
3971775576599: global: PseudoInst::quiesceSkip()
3971775585320: global: PseudoInst::quiesce()
3971780680645: global: PseudoInst::quiesceSkip()
3971780808230: global: PseudoInst::quiesceSkip()
3971785828296: global: PseudoInst::quiesce()
3972128885304: global: PseudoInst::quiesceSkip()
3972198619389: global: PseudoInst::quiesceSkip()
3972240078377: global: PseudoInst::quiesceSkip()
3972280981805: global: PseudoInst::quiesceSkip()
3972282465990: global: PseudoInst::quiesceSkip()
3972288285804: global: PseudoInst::quiesceSkip()
3972337658292: global: PseudoInst::quiesceSkip()
3972350402580: global: PseudoInst::quiesceSkip()
3972350411301: global: PseudoInst::quiesce()
3972350637724: global: PseudoInst::quiesceSkip()
3972350644184: global: PseudoInst::quiesce()
3972350663564: global: PseudoInst::quiesceSkip()
3972350670024: global: PseudoInst::quiesce()
3972404459860: global: PseudoInst::quiesceSkip()
3972404591967: global: PseudoInst::quiesceSkip()
3972408369452: global: PseudoInst::quiesce()
3972409521916: global: PseudoInst::quiesceSkip()
3972410853322: global: PseudoInst::quiesceSkip()
3972437786677: global: PseudoInst::quiesceSkip()
3972458332707: global: PseudoInst::quiesceSkip()
3972458341428: global: PseudoInst::quiesce()
3972458383741: global: PseudoInst::quiesceSkip()
3972458390201: global: PseudoInst::quiesce()
3972470708775: global: PseudoInst::quiesceSkip()
3972473946527: global: PseudoInst::quiesce()
3972475904876: global: PseudoInst::quiesceSkip()
3972501448685: global: PseudoInst::quiesce()
3972502796887: global: PseudoInst::quiesceSkip()
3972515179738: global: PseudoInst::quiesceSkip()
3972515301832: global: PseudoInst::quiesceSkip()
3972536393086: global: PseudoInst::quiesce()
3972544788502: global: PseudoInst::quiesceSkip()
3972544797223: global: PseudoInst::quiesce()
3972544865699: global: PseudoInst::quiesceSkip()
3972544874420: global: PseudoInst::quiesceSkip()
3972545252007: global: PseudoInst::quiesce()
3972549013665: global: PseudoInst::quiesceSkip()
3972549020125: global: PseudoInst::quiesce()
3972549041120: global: PseudoInst::quiesceSkip()
3972549047580: global: PseudoInst::quiesce()
3972549453914: global: PseudoInst::quiesceSkip()
3972549574393: global: PseudoInst::quiesceSkip()
3972562864228: global: PseudoInst::quiesceSkip()
3972562872949: global: PseudoInst::quiesce()
3972562889422: global: PseudoInst::quiesceSkip()
3972562895882: global: PseudoInst::quiesce()
3972563517657: global: PseudoInst::quiesceSkip()
3972563640074: global: PseudoInst::quiesceSkip()
3972588879940: global: PseudoInst::dumpresetstats(1000, 50000000)
3972588879940: global: PseudoInst::dumpresetstats when is (curtick = 3972588879940 + (delay = 1000 * SimClock::Int::ns = 1000))
3972588879940: global: PseudoInst::dumpresetstats repeat is (period = 50000000 * SimClock::Int::ns = 1000
3972588879940: global: PseudoInst::dumpresetstats when = 3972589879940 and repeat = 50000000000
processing StatEvent : curtick is 3972589879940 scheduling next dumpevent after repeat = 50000000000
3972601145865: global: PseudoInst::quiesceSkip()
3972601261176: global: PseudoInst::quiesceSkip()
3972604352932: global: PseudoInst::quiesceSkip()
3972605716315: global: PseudoInst::quiesceSkip()
3972606157533: global: PseudoInst::quiesceSkip()
3972606166254: global: PseudoInst::quiesceSkip()
3972606178528: global: PseudoInst::quiesceSkip()
3972606184988: global: PseudoInst::quiesce()
3972606488285: global: PseudoInst::quiesce()
3972611908871: global: PseudoInst::quiesceSkip()
3972652763203: global: PseudoInst::quiesceSkip()
3972652771924: global: PseudoInst::quiesce()
3972652794211: global: PseudoInst::quiesceSkip()
3972652802932: global: PseudoInst::quiesce()
3972652927933: global: PseudoInst::quiesceSkip()
3972652934393: global: PseudoInst::quiesceSkip()
3972678664573: global: PseudoInst::quiesce()
3972714117376: global: PseudoInst::quiesceSkip()
3972746464857: global: PseudoInst::quiesceSkip()
3972749366043: global: PseudoInst::quiesce()
3972775665349: global: PseudoInst::quiesce()
3972788148653: global: PseudoInst::quiesceSkip()
3972788266871: global: PseudoInst::quiesceSkip()
3972826060778: global: PseudoInst::quiesceSkip()
3972826184810: global: PseudoInst::quiesceSkip()
3972829336644: global: PseudoInst::quiesceSkip()
3972830665789: global: PseudoInst::quiesceSkip()
3972864392480: global: PseudoInst::quiesceSkip()
3972874727188: global: PseudoInst::quiesceSkip()
3972877120295: global: PseudoInst::quiesce()
3972907308521: global: PseudoInst::quiesce()
3972917365126: global: PseudoInst::quiesceSkip()
3972917485605: global: PseudoInst::quiesceSkip()
3973014113639: global: PseudoInst::quiesce()
3973185591109: global: PseudoInst::quiesceSkip()
3973260564254: global: PseudoInst::quiesceSkip()
3973260695069: global: PseudoInst::quiesceSkip()
3973263922162: global: PseudoInst::quiesceSkip()
3973265182831: global: PseudoInst::quiesceSkip()
3973298705063: global: PseudoInst::quiesceSkip()
3973307963212: global: PseudoInst::quiesceSkip()
3973310327572: global: PseudoInst::quiesce()
3973338957000: global: PseudoInst::quiesce()
3973349240674: global: PseudoInst::quiesceSkip()
3973349356308: global: PseudoInst::quiesceSkip()
3973543318777: global: PseudoInst::quiesceSkip()
3973544496112: global: PseudoInst::quiesceSkip()
3973548785552: global: PseudoInst::quiesceSkip()
3973549602096: global: PseudoInst::quiesceSkip()
3973713497787: global: PseudoInst::quiesceSkip()
3973714553028: global: PseudoInst::quiesceSkip()
3973718623474: global: PseudoInst::quiesceSkip()
3973719428390: global: PseudoInst::quiesceSkip()
3973777621039: global: PseudoInst::quiesceSkip()
3973777641711: global: PseudoInst::quiesce()
3973786764523: global: PseudoInst::quiesceSkip()
3973786893400: global: PseudoInst::quiesceSkip()
3973789661510: global: PseudoInst::quiesceSkip()
3973789917003: global: PseudoInst::quiesceSkip()
3973789926047: global: PseudoInst::quiesce()
3973790200920: global: PseudoInst::quiesce()
3973791180902: global: PseudoInst::quiesce()
3973791250993: global: PseudoInst::quiesceSkip()
3973840324060: global: PseudoInst::quiesceSkip()
3973849299261: global: PseudoInst::quiesceSkip()
3973850585447: global: PseudoInst::quiesce()
3973881223289: global: PseudoInst::quiesce()
3973891894886: global: PseudoInst::quiesceSkip()
3973892011489: global: PseudoInst::quiesceSkip()
3974109674083: global: PseudoInst::quiesceSkip()
3974109781642: global: PseudoInst::quiesceSkip()
3974112266481: global: PseudoInst::quiesceSkip()
3974113341748: global: PseudoInst::quiesceSkip()
3974113922502: global: PseudoInst::quiesce()
3974153378890: global: PseudoInst::quiesceSkip()
3974164126715: global: PseudoInst::quiesceSkip()
3974165491067: global: PseudoInst::quiesce()
3974195641502: global: PseudoInst::quiesce()
3974206214261: global: PseudoInst::quiesceSkip()
3974206341846: global: PseudoInst::quiesceSkip()
3974483422874: global: PseudoInst::quiesceSkip()
3974540768940: global: PseudoInst::quiesceSkip()
3974579168472: global: PseudoInst::quiesceSkip()
3974675886300: global: PseudoInst::quiesceSkip()
3974676011624: global: PseudoInst::quiesceSkip()
3974678393426: global: PseudoInst::quiesceSkip()
3974679472892: global: PseudoInst::quiesceSkip()
3974680065597: global: PseudoInst::quiesce()
3974743522177: global: PseudoInst::quiesceSkip()
3974752146923: global: PseudoInst::quiesceSkip()
3974753495771: global: PseudoInst::quiesce()
3974783001175: global: PseudoInst::quiesce()
3974793689568: global: PseudoInst::quiesceSkip()
3974793818122: global: PseudoInst::quiesceSkip()
3974803749403: global: PseudoInst::quiesceSkip()
3975016518547: global: PseudoInst::quiesceSkip()
3975016631920: global: PseudoInst::quiesceSkip()
3975019073800: global: PseudoInst::quiesceSkip()
3975020155527: global: PseudoInst::quiesceSkip()
3975020759214: global: PseudoInst::quiesce()
3975026626832: global: PseudoInst::quiesceSkip()
3975059924579: global: PseudoInst::quiesceSkip()
3975068911408: global: PseudoInst::quiesceSkip()
3975070212452: global: PseudoInst::quiesce()
3975093039185: global: PseudoInst::quiesceSkip()
3975093047906: global: PseudoInst::quiesce()
3975097587671: global: PseudoInst::quiesceSkip()
3975097599945: global: PseudoInst::quiesceSkip()
3975097606405: global: PseudoInst::quiesceSkip()
3975097618679: global: PseudoInst::quiesceSkip()
3975097625139: global: PseudoInst::quiesce()
3975097648072: global: PseudoInst::quiesceSkip()
3975097660346: global: PseudoInst::quiesceSkip()
3975097666806: global: PseudoInst::quiesce()
3975101664254: global: PseudoInst::quiesceSkip()
3975101670714: global: PseudoInst::quiesce()
3975101694939: global: PseudoInst::quiesceSkip()
3975101701399: global: PseudoInst::quiesce()
3975110410448: global: PseudoInst::quiesce()
3975120847547: global: PseudoInst::quiesceSkip()
3975120975132: global: PseudoInst::quiesceSkip()
3975189511533: global: PseudoInst::quiesceSkip()
3975262857404: global: PseudoInst::quiesceSkip()
3975264025695: global: PseudoInst::quiesce()
3975265827389: global: PseudoInst::quiesce()
3975276785487: global: PseudoInst::quiesceSkip()
3975276907258: global: PseudoInst::quiesceSkip()
3975349152345: global: PseudoInst::quiesceSkip()
3975420463316: global: PseudoInst::quiesceSkip()
3975420589286: global: PseudoInst::quiesceSkip()
3975423973680: global: PseudoInst::quiesceSkip()
3975424819294: global: PseudoInst::quiesce()
3975425239840: global: PseudoInst::quiesceSkip()
3975463185234: global: PseudoInst::quiesceSkip()
3975475080678: global: PseudoInst::quiesceSkip()
3975476475069: global: PseudoInst::quiesce()
3975506450761: global: PseudoInst::quiesce()
3975519835881: global: PseudoInst::quiesceSkip()
3975519964435: global: PseudoInst::quiesceSkip()
3975748528279: global: PseudoInst::quiesceSkip()
3975749719826: global: PseudoInst::quiesceSkip()
3975754300612: global: PseudoInst::quiesceSkip()
3975755122647: global: PseudoInst::quiesceSkip()
3975951679775: global: PseudoInst::quiesceSkip()
3975952758595: global: PseudoInst::quiesceSkip()
3975956856819: global: PseudoInst::quiesceSkip()
3975957668518: global: PseudoInst::quiesceSkip()
3976032037653: global: PseudoInst::quiesceSkip()
3976032174928: global: PseudoInst::quiesceSkip()
3976034679793: global: PseudoInst::quiesceSkip()
3976035694013: global: PseudoInst::quiesceSkip()
3976036454032: global: PseudoInst::quiesce()
3976088251281: global: PseudoInst::quiesceSkip()
3976090924429: global: PseudoInst::quiesceSkip()
3976090933150: global: PseudoInst::quiesce()
3976110105138: global: PseudoInst::quiesceSkip()
3976111339967: global: PseudoInst::quiesce()
3976134006815: global: PseudoInst::quiesce()
3976144583450: global: PseudoInst::quiesceSkip()
3976144700376: global: PseudoInst::quiesceSkip()
3976364555171: global: PseudoInst::quiesceSkip()
3976364669836: global: PseudoInst::quiesceSkip()
3976367207324: global: PseudoInst::quiesceSkip()
3976368255136: global: PseudoInst::quiesceSkip()
3976368915671: global: PseudoInst::quiesce()
3976406765134: global: PseudoInst::quiesceSkip()
3976426075366: global: PseudoInst::quiesceSkip()
3976427347986: global: PseudoInst::quiesce()
3976450891779: global: PseudoInst::quiesce()
3976462015253: global: PseudoInst::quiesceSkip()
3976462139931: global: PseudoInst::quiesceSkip()
3976736626623: global: PseudoInst::quiesceSkip()
3976796350938: global: PseudoInst::quiesceSkip()
3976837688801: global: PseudoInst::quiesceSkip()
3976876476902: global: PseudoInst::quiesce()
3977000210450: global: PseudoInst::quiesceSkip()
3977000340296: global: PseudoInst::quiesceSkip()
3977002658790: global: PseudoInst::quiesceSkip()
3977002904593: global: PseudoInst::quiesceSkip()
3977002913314: global: PseudoInst::quiesce()
3977003162670: global: PseudoInst::quiesce()
3977004075145: global: PseudoInst::quiesceSkip()
3977004146528: global: PseudoInst::quiesce()
3977065927707: global: PseudoInst::quiesceSkip()
3977075627074: global: PseudoInst::quiesceSkip()
3977077014682: global: PseudoInst::quiesce()
3977104088865: global: PseudoInst::quiesce()
3977115786310: global: PseudoInst::quiesceSkip()
3977115912280: global: PseudoInst::quiesceSkip()
3977338053915: global: PseudoInst::quiesceSkip()
3977338186022: global: PseudoInst::quiesceSkip()
3977340675383: global: PseudoInst::quiesceSkip()
3977341766154: global: PseudoInst::quiesceSkip()
3977342397942: global: PseudoInst::quiesce()
3977380754515: global: PseudoInst::quiesceSkip()
3977396543401: global: PseudoInst::quiesceSkip()
3977397864794: global: PseudoInst::quiesce()
3977422154717: global: PseudoInst::quiesce()
3977433270439: global: PseudoInst::quiesceSkip()
3977433398024: global: PseudoInst::quiesceSkip()
3977536785802: global: PseudoInst::quiesceSkip()
3977536918555: global: PseudoInst::quiesceSkip()
3977542280678: global: PseudoInst::quiesceSkip()
3977543494512: global: PseudoInst::quiesceSkip()
3977549950313: global: PseudoInst::quiesceSkip()
3977610669791: global: PseudoInst::quiesceSkip()
3977636959730: global: PseudoInst::quiesceSkip()
3977639747543: global: PseudoInst::quiesce()
3977663438947: global: PseudoInst::quiesceSkip()
3977667386007: global: PseudoInst::quiesce()
3977685251783: global: PseudoInst::quiesceSkip()
3977685378722: global: PseudoInst::quiesceSkip()
3977734654310: global: PseudoInst::quiesceSkip()
3977734780280: global: PseudoInst::quiesceSkip()
3977737679205: global: PseudoInst::quiesceSkip()
3977737687926: global: PseudoInst::quiesce()
3977737759309: global: PseudoInst::quiesce()
3977738115901: global: PseudoInst::quiesceSkip()
3977738447945: global: PseudoInst::quiesceSkip()
3977738456666: global: PseudoInst::quiesce()
3977738729601: global: PseudoInst::quiesce()
3977739721857: global: PseudoInst::quiesce()
3977739960231: global: PseudoInst::quiesceSkip()
3977791723242: global: PseudoInst::quiesceSkip()
3977800119950: global: PseudoInst::quiesceSkip()
3977837026576: global: PseudoInst::quiesce()
3977846907792: global: PseudoInst::quiesceSkip()
3977847029563: global: PseudoInst::quiesceSkip()
3977852333869: global: PseudoInst::quiesceSkip()
3977852342590: global: PseudoInst::quiesce()
3977979418542: global: PseudoInst::quiesce()
3978044256270: global: PseudoInst::quiesceSkip()
3978045396460: global: PseudoInst::quiesceSkip()
3978049715939: global: PseudoInst::quiesceSkip()
3978050520532: global: PseudoInst::quiesceSkip()
3978229909564: global: PseudoInst::quiesceSkip()
3978230942841: global: PseudoInst::quiesceSkip()
3978235031698: global: PseudoInst::quiesceSkip()
3978235838875: global: PseudoInst::quiesceSkip()
3978304040648: global: PseudoInst::quiesceSkip()
3978304146915: global: PseudoInst::quiesceSkip()
3978307375300: global: PseudoInst::quiesceSkip()
3978307423104: global: PseudoInst::quiesce()
3978308886940: global: PseudoInst::quiesceSkip()
3978365670017: global: PseudoInst::quiesceSkip()
3978376699175: global: PseudoInst::quiesceSkip()
3978378113592: global: PseudoInst::quiesce()
3978408719134: global: PseudoInst::quiesce()
3978421013160: global: PseudoInst::quiesceSkip()
3978421134931: global: PseudoInst::quiesceSkip()
3978637939960: global: PseudoInst::quiesceSkip()
3978638050103: global: PseudoInst::quiesceSkip()
3978640577255: global: PseudoInst::quiesceSkip()
3978641378941: global: PseudoInst::quiesce()
3978641661566: global: PseudoInst::quiesceSkip()
3978693811854: global: PseudoInst::quiesceSkip()
3978710811021: global: PseudoInst::quiesceSkip()
3978712231575: global: PseudoInst::quiesce()
3978738136498: global: PseudoInst::quiesce()
3978748448273: global: PseudoInst::quiesceSkip()
3978748573597: global: PseudoInst::quiesceSkip()
3979022890391: global: PseudoInst::quiesceSkip()
3979080048794: global: PseudoInst::quiesceSkip()
3979117838179: global: PseudoInst::quiesceSkip()
